data_MIL-101-SO3H				
				
_audit_creation_method 'Materials Studio'				
_audit_creation_date 2022-04-25				
_audit_author_name 'Shubo Fei'				
				
_cell_length_a    59.6935				
_cell_length_b    59.8298				
_cell_length_c    59.8382				
_cell_angle_alpha 59.8580				
_cell_angle_beta  59.7430				
_cell_angle_gamma 59.7442				
_cell_volume      150365.9				
				
_symmetry_cell_setting          triclinic				
_symmetry_space_group_name_Hall 'P 1'				
_symmetry_space_group_name_H-M  'P 1'				
_symmetry_Int_Tables_number     1				
				
_symmetry_equiv_pos_as_xyz 'x,y,z'				
				
loop_				
_atom_site_label				
_atom_site_type_symbol				
_atom_site_fract_x				
_atom_site_fract_y				
_atom_site_fract_z				
Cr1	Cr	0.3521	0.68248	0.49724
Cr1	Cr	0.67279	0.73299	0.90674
O2	O	0.9812	0.86236	0.85294
O2	O	0.69805	0.74422	0.90676
O3	O	0.78677	0.80821	0.86561
O2	O	0.86919	0.76048	0.67807
O2	O	0.84806	0.73911	0.6759
O3	O	0.33667	0.62537	0.52752
O2	O	0.35742	0.6489	0.52761
O2	O	0.28546	0.53013	0.64651
O2	O	0.26592	0.53444	0.68875
O2	O	0.17108	0.59341	0.61745
O3	O	0.14289	0.58226	0.66194
O3	O	0.1861	0.67126	0.70408
O3	O	0.12673	0.63031	0.66799
O2	O	0.25915	0.66547	0.69122
O3	O	0.224	0.65004	0.72814
O3	O	0.333	0.53154	0.69292
O2	O	0.29174	0.5265	0.71863
C3	C	0.93259	0.90704	0.84082
C3	C	0.74008	0.77083	0.86403
C3	C	0.75796	0.78566	0.85095
C4	C	0.81734	0.79944	0.66513
C1	C	0.84611	0.75277	0.69027
C2	C	0.82119	0.77822	0.68984
C3	C	0.80158	0.78136	0.71506
C3	C	0.38486	0.57528	0.5461
C1	C	0.36121	0.62521	0.52507
C2	C	0.3685	0.60117	0.54906
C3	C	0.35276	0.60303	0.57548
C3	C	0.22667	0.53128	0.66071
C1	C	0.26431	0.52647	0.67153
C2	C	0.23722	0.54298	0.66676
C4	C	0.2027	0.54656	0.65371
C1	C	0.16421	0.59268	0.64369
C2	C	0.18898	0.57436	0.65272
C3	C	0.2232	0.57025	0.66649
C3	C	0.19924	0.58573	0.65959
C3	C	0.12346	0.68236	0.70658
C4	C	0.10963	0.67364	0.70081
C4	C	0.27665	0.60442	0.71506
C1	C	0.24102	0.65177	0.70097
C2	C	0.25849	0.62325	0.69969
C3	C	0.29294	0.57851	0.71213
C1	C	0.3058	0.54217	0.69415
C2	C	0.29212	0.57123	0.69376
C3	C	0.25777	0.61568	0.68142
C3	C	0.27479	0.59007	0.67813
H1	H	0.72314	0.77868	0.85716
H1	H	0.7552	0.8042	0.8335
H1	H	0.11335	0.68919	0.72408
S1	S	0.07499	0.67347	0.72321
H1	H	0.92969	0.88726	0.85193
S1	S	0.84034	0.79685	0.63123
H1	H	0.24389	0.62963	0.66974
H1	H	0.27368	0.58454	0.66412
S1	S	0.27962	0.61209	0.73916
H1	H	0.30594	0.56364	0.72461
H1	H	0.39653	0.57372	0.52572
H1	H	0.33929	0.62273	0.5783
H1	H	0.23112	0.57985	0.67087
H1	H	0.18904	0.6069	0.65895
H1	H	0.23765	0.5103	0.6608
S1	S	0.1913	0.52979	0.64502
H1	H	0.80434	0.76551	0.73408
Cr1	Cr	0.6786	0.35303	0.97276
Cr1	Cr	0.73646	0.67587	0.18894
O3	O	0.86902	0.97979	0.81751
O2	O	0.74749	0.70433	0.15498
O3	O	0.80871	0.78283	0.04223
O3	O	0.75778	0.87111	0.18181
O2	O	0.73866	0.85208	0.2275
O3	O	0.62142	0.33895	0.01737
O2	O	0.64532	0.35563	0.97262
O2	O	0.53159	0.28489	0.032
O2	O	0.5345	0.2674	0.00433
O2	O	0.56944	0.15898	0.1277
O3	O	0.58308	0.14099	0.09482
O2	O	0.66091	0.18248	0.93958
O3	O	0.63334	0.10773	0.07515
O2	O	0.66111	0.26043	0.8712
O2	O	0.6396	0.2305	0.90643
O3	O	0.52776	0.34225	0.93983
O2	O	0.52828	0.29931	0.95524
C3	C	0.93915	0.95855	0.81087
C3	C	0.77033	0.74787	0.12401
C3	C	0.78333	0.7658	0.1004
C3	C	0.78938	0.81459	0.22021
C1	C	0.75008	0.84854	0.20223
C2	C	0.77615	0.82397	0.20179
C3	C	0.78843	0.81119	0.18219
C3	C	0.57119	0.37508	0.00997
C1	C	0.62179	0.36217	0.99399
C2	C	0.59608	0.37044	0.98825
C4	C	0.59568	0.36921	0.96531
C3	C	0.52471	0.22238	0.07162
C1	C	0.52595	0.26547	0.03146
C2	C	0.54032	0.23779	0.04784
C4	C	0.53736	0.19767	0.08907
C1	C	0.58173	0.16219	0.09962
C2	C	0.56616	0.1888	0.08288
C3	C	0.56892	0.2283	0.04115
C3	C	0.58165	0.20406	0.05862
C3	C	0.65116	0.16569	0.99632
C3	C	0.64474	0.1507	0.02419
C3	C	0.60848	0.29515	0.89456
C1	C	0.6489	0.25086	0.89962
C2	C	0.62458	0.27295	0.91053
C4	C	0.58221	0.3116	0.90668
C1	C	0.54132	0.31497	0.95201
C2	C	0.57151	0.30515	0.93565
C3	C	0.61509	0.26855	0.93858
C3	C	0.58889	0.28457	0.95097
H1	H	0.78217	0.73021	0.13663
H1	H	0.80486	0.76149	0.09569
H1	H	0.63694	0.186	0.9895
H1	H	0.62503	0.15911	0.03814
H1	H	0.94163	0.97852	0.7995
H1	H	0.78068	0.82451	0.23508
H1	H	0.62716	0.25139	0.95128
H1	H	0.58139	0.27948	0.97302
H1	H	0.61575	0.29877	0.87282
S1	S	0.56329	0.34	0.88398
H1	H	0.57087	0.37739	0.02697
S1	S	0.62415	0.36913	0.93299
H1	H	0.58125	0.24002	0.02276
H1	H	0.60378	0.19705	0.05305
H1	H	0.50259	0.22988	0.0767
S1	S	0.51578	0.17835	0.11909
H1	H	0.77873	0.8182	0.1676
Cr2	Cr	0.50574	0.96068	0.36022
Cr1	Cr	0.90359	0.1828	0.6853
O3	O	0.83394	0.80127	0.98544
O2	O	0.90859	0.14813	0.71389
O3	O	0.86906	0.0333	0.79514
O2	O	0.67262	0.21531	0.86189
O2	O	0.70592	0.2352	0.83578
O2	O	0.53599	0.0059	0.337
O3	O	0.53593	0.96242	0.36298
O3	O	0.64879	0.0436	0.2849
O2	O	0.69108	0.02381	0.25846
O2	O	0.62618	0.1329	0.15698
O2	O	0.6608	0.09447	0.14518
O3	O	0.70215	0.94134	0.1811
O2	O	0.67134	0.07585	0.10745
O2	O	0.69882	0.88679	0.25393
O3	O	0.73174	0.90287	0.21439
O2	O	0.70099	0.94915	0.32039
O2	O	0.72254	0.97312	0.27858
F1	F	0.50718	0.92937	0.39081
C4	C	0.8176	0.78609	0.95818
C4	C	0.88434	0.10606	0.74375
C3	C	0.87546	0.08332	0.76119
C4	C	0.7123	0.225	0.79103
C1	C	0.69984	0.21196	0.84414
C2	C	0.7022	0.20881	0.81916
C3	C	0.69097	0.19	0.82479
C3	C	0.55298	0.00626	0.37403
C1	C	0.53285	0.98705	0.36308
C2	C	0.55487	0.9837	0.37104
C3	C	0.57883	0.96071	0.37147
C3	C	0.63508	0.08276	0.23939
C1	C	0.67163	0.04881	0.26218
C2	C	0.66283	0.06708	0.23708
C4	C	0.62637	0.09671	0.21651
C1	C	0.63735	0.10423	0.16598
C2	C	0.64578	0.09427	0.19058
C3	C	0.6823	0.0676	0.21098
C3	C	0.67397	0.08074	0.18818
C3	C	0.67085	0.99556	0.16468
C3	C	0.66544	0.02426	0.15173
C4	C	0.72355	0.91199	0.26362
C1	C	0.70563	0.91006	0.23382
C2	C	0.70541	0.92442	0.24867
C3	C	0.72038	0.92527	0.27927
C1	C	0.69901	0.96605	0.29436
C2	C	0.69936	0.9504	0.28083
C3	C	0.68439	0.94959	0.25035
C3	C	0.68134	0.96247	0.26632
S1	S	0.9038	0.10726	0.70807
H1	H	0.88037	0.06853	0.75269
H1	H	0.6676	0.98733	0.18651
H1	H	0.6802	0.03007	0.15212
S1	S	0.8327	0.75309	0.98074
S1	S	0.72719	0.25102	0.77867
H1	H	0.67006	0.95912	0.2395
H1	H	0.66535	0.98215	0.26686
S1	S	0.75099	0.87892	0.26386
H1	H	0.73464	0.91625	0.29004
H1	H	0.53399	0.02365	0.3749
H1	H	0.58009	0.94236	0.37077
H1	H	0.70399	0.05666	0.20836
H1	H	0.68999	0.07942	0.16873
H1	H	0.61991	0.08382	0.25926
S1	S	0.59009	0.11729	0.2223
H1	H	0.68241	0.17793	0.84573
Cr1	Cr	0.96418	0.5038	0.67406
Cr1	Cr	0.19036	0.89559	0.7416
O3	O	0.80945	0.83724	0.86868
O2	O	0.1579	0.88566	0.75844
O2	O	0.0347	0.86139	0.82012
O3	O	0.19055	0.68485	0.75768
O2	O	0.23504	0.68302	0.73341
O3	O	0.00943	0.53382	0.61887
O2	O	0.96598	0.5334	0.63931
O2	O	0.02696	0.654	0.53126
O2	O	0.00722	0.69794	0.53015
O2	O	0.113	0.62529	0.58873
O2	O	0.10267	0.66865	0.58573
O2	O	0.93761	0.701	0.67174
O2	O	0.0681	0.66547	0.63709
O2	O	0.88266	0.69386	0.6617
O2	O	0.89936	0.72827	0.64632
O3	O	0.93941	0.69928	0.52574
O2	O	0.95851	0.72488	0.52315
C3	C	0.79062	0.83409	0.92361
C4	C	0.10234	0.88597	0.77702
C3	C	0.07978	0.87685	0.79127
C3	C	0.23255	0.67505	0.78318
C1	C	0.20941	0.69755	0.74793
C2	C	0.21148	0.69618	0.77267
C3	C	0.19115	0.71459	0.78681
C4	C	0.00709	0.5525	0.56485
C1	C	0.98954	0.53026	0.61661
C2	C	0.9844	0.55214	0.58994
C4	C	0.9593	0.57504	0.589
C4	C	0.04846	0.64375	0.56912
C1	C	0.03219	0.67635	0.52617
C2	C	0.0451	0.6689	0.54641
C3	C	0.06149	0.63946	0.58554
C1	C	0.09178	0.6487	0.59438
C2	C	0.07278	0.65814	0.57952
C3	C	0.05473	0.68846	0.54192
C3	C	0.06873	0.68308	0.55797
C3	C	0.98359	0.69962	0.68966
C3	C	0.012	0.69273	0.68215
C3	C	0.90162	0.71595	0.60349
C1	C	0.90623	0.70127	0.64875
C2	C	0.91805	0.70021	0.62032
C4	C	0.91174	0.71531	0.57699
C1	C	0.95377	0.70025	0.53752
C2	C	0.93892	0.6981	0.56714
C3	C	0.94476	0.68306	0.61065
C3	C	0.95501	0.682	0.5843
S1	S	0.09968	0.9129	0.78524
H1	H	0.06225	0.88635	0.80596
H1	H	0.96961	0.71689	0.697
H1	H	0.01964	0.70597	0.68177
H1	H	0.7794	0.85268	0.91095
H1	H	0.24828	0.66039	0.77278
H1	H	0.95783	0.67095	0.62321
H1	H	0.97617	0.6697	0.57664
H1	H	0.88078	0.72896	0.61109
S1	S	0.88897	0.73748	0.55674
S1	S	0.04012	0.5252	0.56036
S1	S	0.92565	0.577	0.61582
H1	H	0.05215	0.70777	0.52522
H1	H	0.07706	0.6981	0.55288
S1	S	0.03931	0.61464	0.57781
H1	H	0.06464	0.62036	0.6023
H1	H	0.17484	0.73114	0.77906
Cr1	Cr	0.49703	0.34927	0.68262
Cr2	Cr	0.89775	0.67486	0.73387
O2	O	0.82868	0.98475	0.88291
O3	O	0.8928	0.70313	0.74472
O2	O	0.8669	0.78848	0.80457
O2	O	0.67319	0.86908	0.75537
O2	O	0.70382	0.83887	0.73101
O3	O	0.52825	0.33308	0.62586
O2	O	0.52883	0.35231	0.65006
O2	O	0.64667	0.28721	0.52924
O2	O	0.6891	0.26444	0.53283
O2	O	0.63644	0.15494	0.57632
O3	O	0.66917	0.14258	0.59365
O2	O	0.71096	0.17149	0.67655
O3	O	0.67326	0.10959	0.64244
O2	O	0.70982	0.25057	0.66427
O2	O	0.72292	0.21706	0.6486
O3	O	0.69559	0.33051	0.53249
O2	O	0.71886	0.28821	0.52961
F1	F	0.90669	0.64985	0.76525
C3	C	0.8221	0.95893	0.93894
C3	C	0.84794	0.7576	0.75994
C3	C	0.84035	0.77387	0.77489
C3	C	0.67727	0.81558	0.79003
C1	C	0.69938	0.8493	0.74996
C2	C	0.69913	0.82564	0.7764
C3	C	0.72085	0.8121	0.78658
C3	C	0.54753	0.38265	0.577
C1	C	0.52649	0.35699	0.62602
C2	C	0.5506	0.36439	0.60246
C3	C	0.57702	0.34841	0.60424
C3	C	0.63949	0.23918	0.54229
C1	C	0.671	0.26593	0.52342
C2	C	0.66501	0.2393	0.5375
C4	C	0.63275	0.215	0.55699
C1	C	0.64545	0.16329	0.58749
C2	C	0.65215	0.18984	0.56759
C3	C	0.68479	0.21433	0.5459
C3	C	0.67851	0.19017	0.56072
C3	C	0.68239	0.12081	0.70692
C4	C	0.6735	0.10846	0.69959
C3	C	0.71785	0.27225	0.60696
C1	C	0.70154	0.24025	0.65444
C2	C	0.69725	0.261	0.62762
C4	C	0.71705	0.28771	0.58024
C1	C	0.69514	0.30388	0.54464
C2	C	0.69507	0.29191	0.57376
C3	C	0.67479	0.26647	0.6216
C3	C	0.6737	0.28182	0.59492
H1	H	0.83264	0.7512	0.76232
H1	H	0.81939	0.77939	0.78868
H1	H	0.69052	0.10904	0.72367
S1	S	0.67625	0.07269	0.71813
H1	H	0.83974	0.96572	0.92817
H1	H	0.66105	0.82535	0.78145
H1	H	0.6589	0.25765	0.63712
H1	H	0.6568	0.28463	0.59044
H1	H	0.73541	0.26776	0.61145
S1	S	0.74659	0.29854	0.5548
H1	H	0.52704	0.3947	0.57572
H1	H	0.57983	0.33364	0.62365
H1	H	0.70505	0.21351	0.54168
H1	H	0.69459	0.17182	0.56737
H1	H	0.62437	0.25829	0.53489
S1	S	0.59852	0.21905	0.5614
H1	H	0.73828	0.81903	0.77599
Cr1	Cr	0.9776	0.68508	0.3422
Cr1	Cr	0.18945	0.73339	0.67188
O2	O	0.79752	0.88283	0.98464
O2	O	0.15578	0.7464	0.69927
O3	O	0.03612	0.80749	0.79098
O2	O	0.18563	0.75176	0.87566
O3	O	0.23186	0.73397	0.85568
O3	O	0.02405	0.62595	0.33062
O2	O	0.97959	0.64847	0.35071
O2	O	0.04796	0.51341	0.2925
O3	O	0.02174	0.51385	0.27405
O3	O	0.12189	0.57804	0.17361
O2	O	0.11232	0.56998	0.14621
O2	O	0.94263	0.67154	0.18329
O2	O	0.0758	0.62065	0.13286
O3	O	0.88746	0.66185	0.25536
O2	O	0.9021	0.64979	0.21826
O2	O	0.94487	0.54034	0.32963
O3	O	0.96937	0.52494	0.29408
C4	C	0.77697	0.94065	0.96754
C3	C	0.11101	0.77227	0.7347
C4	C	0.08796	0.78742	0.75125
C3	C	0.22822	0.76626	0.80294
C1	C	0.20629	0.74416	0.85292
C2	C	0.20557	0.76847	0.82682
C3	C	0.18354	0.79344	0.82585
C3	C	0.02035	0.57439	0.36787
C1	C	1.00282	0.62623	0.35562
C2	C	0.99752	0.59916	0.36809
C4	C	0.9716	0.5982	0.37425
C4	C	0.09068	0.51501	0.23023
C1	C	0.0483	0.50721	0.27261
C2	C	0.06224	0.52477	0.24457
C3	C	0.10274	0.53229	0.20473
C1	C	0.1012	0.5789	0.16829
C2	C	0.08722	0.55962	0.19362
C3	C	0.04672	0.55204	0.23264
C3	C	0.05912	0.56929	0.20764
C3	C	0.99131	0.68866	0.12253
C3	C	0.01899	0.66641	0.11385
C3	C	0.94767	0.62018	0.25559
C1	C	0.91033	0.65118	0.23546
C2	C	0.92607	0.62312	0.25015
C4	C	0.95997	0.5956	0.27339
C1	C	0.96418	0.54483	0.3034
C2	C	0.95135	0.57269	0.28496
C3	C	0.91678	0.60097	0.26228
C3	C	0.92949	0.57599	0.27918
H1	H	0.11336	0.77952	0.71332
S1	S	0.06619	0.81838	0.73262
H1	H	0.97649	0.69031	0.11529
H1	H	0.02896	0.67421	0.09125
S1	S	0.74572	0.9318	0.98707
H1	H	0.24517	0.74702	0.80359
H1	H	0.89936	0.60317	0.25908
H1	H	0.92191	0.55919	0.2882
H1	H	0.95391	0.63775	0.24704
S1	S	0.9838	0.59673	0.28279
S1	S	0.05326	0.56969	0.36701
S1	S	0.9388	0.62318	0.38642
H1	H	0.02485	0.56028	0.24274
H1	H	0.04684	0.59033	0.19945
S1	S	0.11282	0.48096	0.24426
H1	H	0.1246	0.52482	0.19392
H1	H	0.16554	0.79586	0.84388
Cr1	Cr	0.36417	0.49619	0.96689
Cr1	Cr	0.66766	0.90485	0.19356
O3	O	0.98014	0.83029	0.81885
O2	O	0.69082	0.90185	0.15781
O2	O	0.76959	0.86567	0.0414
O2	O	0.87158	0.68658	0.18457
O3	O	0.85237	0.68283	0.22941
O2	O	0.33916	0.53083	0.00868
O2	O	0.36867	0.5261	0.96721
O2	O	0.28467	0.64967	0.03681
O3	O	0.26174	0.69402	0.01624
O3	O	0.17939	0.60597	0.11375
O2	O	0.14897	0.64967	0.10964
O2	O	0.18706	0.69182	0.94312
O2	O	0.13179	0.65504	0.07333
O3	O	0.25811	0.69163	0.89072
O2	O	0.21813	0.72458	0.90667
O2	O	0.32831	0.69808	0.94478
O3	O	0.28791	0.72271	0.96718
C3	C	0.95207	0.82623	0.79431
C4	C	0.72206	0.87556	0.11691
C3	C	0.73898	0.86668	0.09404
C3	C	0.81258	0.67942	0.22351
C1	C	0.84977	0.69914	0.20364
C2	C	0.82346	0.70064	0.20447
C3	C	0.80962	0.72282	0.18646
C4	C	0.3765	0.54941	0.00894
C1	C	0.36627	0.52574	0.99185
C2	C	0.37435	0.54834	0.98711
C3	C	0.37456	0.57114	0.96287
C4	C	0.22673	0.65467	0.08442
C1	C	0.26275	0.67312	0.04143
C2	C	0.23712	0.66544	0.05558
C3	C	0.20542	0.644	0.0971
C1	C	0.17131	0.63241	0.09547
C2	C	0.19444	0.64349	0.08146
C3	C	0.22576	0.66505	0.04006
C3	C	0.20459	0.65423	0.0529
C3	C	0.12658	0.69049	0.98878
C3	C	0.11414	0.68229	0.01795
C4	C	0.26723	0.72002	0.91205
C1	C	0.23796	0.69904	0.91374
C2	C	0.25304	0.70088	0.92625
C3	C	0.28386	0.71829	0.92331
C1	C	0.30163	0.69852	0.9616
C2	C	0.28689	0.69789	0.94807
C3	C	0.25607	0.68063	0.9512
C3	C	0.27316	0.67894	0.96188
S1	S	0.68513	0.88537	0.12534
H1	H	0.72943	0.86714	0.08252
H1	H	0.12622	0.71187	0.98091
H1	H	0.09347	0.69518	0.02654
H1	H	0.961	0.84227	0.77969
H1	H	0.82318	0.66201	0.23734
H1	H	0.24558	0.66579	0.96216
H1	H	0.27541	0.66312	0.98112
S1	S	0.26534	0.747	0.87927
H1	H	0.29426	0.73311	0.91302
S1	S	0.37827	0.52027	0.04033
H1	H	0.37404	0.5704	0.94544
H1	H	0.2336	0.67266	0.0179
H1	H	0.19623	0.65411	0.04057
S1	S	0.24201	0.65194	0.10565
H1	H	0.19772	0.63546	0.11925
H1	H	0.81769	0.73938	0.17162
Cr2	Cr	0.68105	0.96483	0.50115
Cr2	Cr	0.72386	0.18949	0.91121
O2	O	0.86922	0.81003	0.83573
O3	O	0.72605	0.15575	0.91232
O2	O	0.80932	0.04203	0.8729
O2	O	0.75298	0.20192	0.67857
O2	O	0.72854	0.22948	0.70551
O2	O	0.62647	0.01034	0.53066
O3	O	0.64818	0.96625	0.53288
O2	O	0.53064	0.03312	0.64426
O3	O	0.53229	0.0103	0.68778
O2	O	0.57719	0.12732	0.6324
O2	O	0.58857	0.09262	0.67037
O2	O	0.66719	0.94421	0.71256
O2	O	0.63531	0.07342	0.6792
O2	O	0.6597	0.87447	0.71533
O2	O	0.64116	0.91236	0.72661
O2	O	0.53008	0.93955	0.69361
O3	O	0.52593	0.96127	0.71734
F1	F	0.74714	0.16897	0.93174
F1	F	0.67901	0.93368	0.50395
C4	C	0.92839	0.78507	0.83172
C3	C	0.76579	0.11906	0.8864
C4	C	0.7821	0.09416	0.88094
C4	C	0.79128	0.21701	0.67909
C1	C	0.74756	0.20383	0.70327
C2	C	0.77389	0.20245	0.70272
C3	C	0.77993	0.18859	0.72725
C3	C	0.57427	0.00542	0.54675
C1	C	0.62562	0.98915	0.52809
C2	C	0.59901	0.98416	0.54892
C3	C	0.59813	0.95972	0.57119
C3	C	0.52672	0.07652	0.66917
C1	C	0.52477	0.0361	0.66843
C2	C	0.54066	0.05269	0.66221
C4	C	0.54102	0.09256	0.66347
C1	C	0.58767	0.09895	0.64494
C2	C	0.56998	0.08489	0.64957
C3	C	0.56921	0.04509	0.64869
C3	C	0.58363	0.06123	0.64221
C3	C	0.66401	0.99348	0.70616
C3	C	0.66005	0.02066	0.70181
C4	C	0.60036	0.90096	0.72081
C1	C	0.64806	0.90281	0.70642
C2	C	0.6221	0.91165	0.70129
C3	C	0.57487	0.91391	0.71683
C1	C	0.54164	0.95469	0.69354
C2	C	0.57032	0.93774	0.69436
C3	C	0.61784	0.93437	0.67792
C3	C	0.5921	0.9475	0.67457
H1	H	0.77156	0.12453	0.897
S1	S	0.81067	0.0732	0.89438
H1	H	0.64885	0.98449	0.72371
H1	H	0.66623	0.02064	0.71648
S1	S	0.9146	0.75729	0.85627
S1	S	0.78464	0.23869	0.64668
H1	H	0.63399	0.94308	0.66313
H1	H	0.58882	0.96601	0.65723
S1	S	0.60353	0.87162	0.7519
H1	H	0.55793	0.90641	0.73211
H1	H	0.5746	0.02361	0.52866
H1	H	0.61673	0.9421	0.57215
H1	H	0.5803	0.0267	0.6431
H1	H	0.60571	0.05478	0.6321
H1	H	0.50462	0.08246	0.6793
S1	S	0.52081	0.12256	0.67449
H1	H	0.76647	0.17823	0.74578
Cr1	Cr	0.68158	0.50173	0.35341
Cr2	Cr	0.72942	0.90871	0.67643
O2	O	0.87578	0.83486	0.9976
O3	O	0.73413	0.91135	0.70444
O2	O	0.80766	0.87026	0.78648
O2	O	0.76087	0.68344	0.87488
O3	O	0.74177	0.68244	0.85118
O2	O	0.62292	0.52993	0.34078
O2	O	0.64664	0.53075	0.36054
O2	O	0.52751	0.64802	0.2877
O2	O	0.52663	0.69245	0.26468
O3	O	0.57359	0.63583	0.1578
O2	O	0.58641	0.6724	0.14454
O3	O	0.6748	0.70049	0.1844
O2	O	0.63541	0.67842	0.11177
O2	O	0.6612	0.69381	0.25701
O3	O	0.64724	0.72855	0.22059
O3	O	0.52725	0.69753	0.33014
O2	O	0.5207	0.72209	0.28994
F1	F	0.75626	0.92478	0.65091
C4	C	0.91523	0.82671	0.94412
C3	C	0.76567	0.85624	0.74836
C3	C	0.78123	0.84773	0.76432
C4	C	0.80437	0.69459	0.82333
C1	C	0.75253	0.69783	0.85208
C2	C	0.77642	0.70305	0.82558
C3	C	0.77026	0.71596	0.80125
C3	C	0.57229	0.54864	0.38578
C1	C	0.62292	0.52769	0.36496
C2	C	0.59832	0.55146	0.37249
C3	C	0.60016	0.5779	0.35873
C3	C	0.52353	0.66082	0.22974
C1	C	0.52029	0.67179	0.26664
C2	C	0.53636	0.66529	0.24049
C4	C	0.53774	0.65489	0.2052
C1	C	0.58383	0.64733	0.16454
C2	C	0.56618	0.65203	0.19179
C3	C	0.56431	0.66248	0.22727
C3	C	0.57889	0.65618	0.20309
C3	C	0.67286	0.70489	0.13388
C4	C	0.66399	0.69861	0.12065
C4	C	0.59999	0.71937	0.27151
C1	C	0.64858	0.70193	0.23857
C2	C	0.61951	0.70162	0.2557
C3	C	0.57363	0.71737	0.28757
C1	C	0.53719	0.69803	0.30341
C2	C	0.56637	0.6978	0.28883
C3	C	0.61207	0.68195	0.25726
C3	C	0.5858	0.67991	0.27383
H1	H	0.76941	0.8426	0.73911
H1	H	0.79648	0.82742	0.76743
H1	H	0.66505	0.72574	0.13357
S1	S	0.64168	0.7272	0.1013
S1	S	0.88591	0.85644	0.93599
S1	S	0.81647	0.67916	0.85207
H1	H	0.62671	0.66813	0.24561
H1	H	0.58036	0.66482	0.27443
S1	S	0.60723	0.74537	0.27184
H1	H	0.55841	0.73142	0.29889
H1	H	0.5709	0.52826	0.3956
H1	H	0.61999	0.58082	0.3471
H1	H	0.57476	0.6655	0.23544
H1	H	0.60017	0.65532	0.19263
H1	H	0.5023	0.66194	0.24064
S1	S	0.51769	0.65307	0.19155
H1	H	0.74935	0.72322	0.80193
Cr1	Cr	0.35296	0.95858	0.68604
Cr2	Cr	0.67372	0.18537	0.7362
O2	O	0.98405	0.79887	0.87968
O3	O	0.70236	0.14993	0.7409
O2	O	0.78785	0.037	0.81439
O2	O	0.8694	0.20332	0.7609
O3	O	0.83678	0.22651	0.73967
O2	O	0.33506	0.00171	0.63037
O2	O	0.35797	0.95784	0.65151
O2	O	0.28844	0.03698	0.52892
O3	O	0.26328	0.01638	0.53144
O2	O	0.15713	0.12814	0.57893
O2	O	0.14609	0.08913	0.59665
O3	O	0.17921	0.94005	0.68491
O2	O	0.11217	0.07014	0.64674
O2	O	0.24974	0.88885	0.66326
O3	O	0.20953	0.90716	0.65389
O2	O	0.32475	0.94326	0.53457
O3	O	0.28484	0.96693	0.52776
F1	F	0.64823	0.16802	0.76306
C3	C	0.96276	0.78162	0.95145
C4	C	0.73324	0.108	0.77849
C3	C	0.75112	0.08617	0.79296
C4	C	0.81542	0.22009	0.79921
C1	C	0.84781	0.20234	0.75862
C2	C	0.82479	0.2015	0.78566
C3	C	0.80981	0.18434	0.79587
C3	C	0.37468	-0.00187	0.57774
C1	C	0.36041	0.98129	0.62858
C2	C	0.36939	0.97671	0.60225
C3	C	0.36788	0.95442	0.60168
C3	C	0.22168	0.07972	0.52793
C1	C	0.26631	0.04133	0.5233
C2	C	0.241	0.0577	0.53997
C4	C	0.19686	0.09422	0.54367
C1	C	0.16536	0.09963	0.59095
C2	C	0.19199	0.08696	0.57192
C3	C	0.23604	0.05048	0.56788
C3	C	0.21191	0.06532	0.58359
C3	C	0.16153	0.99077	0.69572
C3	C	0.1514	0.01928	0.6856
C4	C	0.26087	0.91221	0.60449
C1	C	0.22991	0.91281	0.65337
C2	C	0.24567	0.92595	0.62412
C3	C	0.27905	0.92307	0.57928
C1	C	0.29842	0.96076	0.54404
C2	C	0.28256	0.94725	0.57286
C3	C	0.24885	0.95056	0.61735
C3	C	0.26721	0.9611	0.59195
S1	S	0.69794	0.10815	0.7937
H1	H	0.74328	0.07092	0.81143
H1	H	0.18152	0.98072	0.69823
H1	H	0.16486	0.03	0.67926
H1	H	0.98098	0.76408	0.95442
S1	S	0.83033	0.24629	0.78627
H1	H	0.23743	0.96138	0.63197
H1	H	0.26904	0.98033	0.58695
S1	S	0.25853	0.8803	0.61041
H1	H	0.29013	0.91307	0.56413
H1	H	0.37672	0.01502	0.57794
H1	H	0.36498	0.93707	0.62026
H1	H	0.25083	0.03325	0.57752
H1	H	0.20832	0.05931	0.60516
H1	H	0.22573	0.08508	0.50637
S1	S	0.17239	0.12189	0.52641
H1	H	0.81593	0.17086	0.7853
Cr1	Cr	0.96288	0.34148	0.50545
Cr1	Cr	0.19833	0.66326	0.9024
O2	O	0.8061	0.98294	0.84872
O2	O	0.16432	0.68799	0.89485
O2	O	0.03967	0.77853	0.87194
O3	O	0.17694	0.87567	0.68834
O2	O	0.2233	0.85499	0.67932
O2	O	0.00946	0.32738	0.52971
O2	O	0.96404	0.34135	0.53703
O2	O	0.03637	0.29461	0.641
O2	O	0.01032	0.27132	0.68108
O2	O	0.12947	0.16114	0.63264
O3	O	0.09414	0.14718	0.66967
O2	O	0.94319	0.17212	0.71746
O3	O	0.07598	0.10911	0.68095
O3	O	0.87497	0.25019	0.71767
O2	O	0.91393	0.2191	0.72691
O3	O	0.94153	0.33971	0.6829
O2	O	0.95916	0.29681	0.70852
C4	C	0.78946	0.94659	0.84063
C4	C	0.10859	0.72717	0.89418
C3	C	0.08563	0.74528	0.88579
C3	C	0.20007	0.82818	0.67142
C1	C	0.19765	0.85215	0.69705
C2	C	0.19637	0.82827	0.69633
C3	C	0.19249	0.80571	0.71999
C3	C	-0.00044	0.36574	0.55077
C1	C	0.98472	0.34935	0.53168
C2	C	0.97955	0.35696	0.55506
C4	C	0.95993	0.35107	0.5819
C3	C	0.0727	0.24514	0.63233
C1	C	0.03697	0.27208	0.665
C2	C	0.05535	0.24569	0.65895
C4	C	0.08928	0.22026	0.62702
C1	C	0.10098	0.16755	0.64431
C2	C	0.08741	0.19511	0.6488
C3	C	0.05544	0.22101	0.68062
C3	C	0.07086	0.19621	0.67568
C3	C	0.99588	0.16329	0.67711
C3	C	0.0249	0.15086	0.67105
C3	C	0.89918	0.28958	0.69732
C1	C	0.90356	0.24098	0.70648
C2	C	0.91549	0.26328	0.69505
C4	C	0.91124	0.30862	0.68955
C1	C	0.95588	0.31269	0.68312
C2	C	0.94045	0.30075	0.6803
C3	C	0.94398	0.25729	0.6823
C3	C	0.95624	0.27573	0.67506
S1	S	0.10393	0.6969	0.92414
H1	H	0.06674	0.74059	0.89792
H1	H	0.98707	0.1851	0.67418
H1	H	0.03104	0.1543	0.68349
S1	S	0.75843	0.9614	0.86525
H1	H	0.20284	0.84593	0.65332
H1	H	0.95698	0.23756	0.67938
H1	H	0.97846	0.26941	0.66711
H1	H	0.87699	0.29523	0.70571
S1	S	0.88795	0.34302	0.69015
H1	H	0.01369	0.37178	0.53015
S1	S	0.92711	0.34916	0.58979
H1	H	0.04281	0.22093	0.70147
H1	H	0.06913	0.17791	0.69338
H1	H	0.07361	0.26418	0.6155
S1	S	0.11275	0.22298	0.59195
H1	H	0.18958	0.80556	0.73945
Cr2	Cr	0.50083	0.68358	0.96335
Cr1	Cr	0.90735	0.73378	0.1889
O2	O	0.83891	0.86806	0.81127
O2	O	0.90485	0.74624	0.15331
O2	O	0.84275	0.81939	0.05508
O3	O	0.67904	0.76034	0.18803
O2	O	0.67648	0.73842	0.23268
O2	O	0.53073	0.63078	0.00888
O3	O	0.52965	0.64775	0.966
O3	O	0.64878	0.52848	0.03971
O2	O	0.69222	0.53096	0.01564
O3	O	0.63298	0.57747	0.13137
O2	O	0.67098	0.58985	0.09807
O2	O	0.70285	0.67	0.94326
O2	O	0.67637	0.63857	0.07773
O3	O	0.69996	0.66202	0.8845
O2	O	0.73262	0.64826	0.90227
O2	O	0.69391	0.53268	0.94579
O2	O	0.72026	0.52632	0.96591
F1	F	0.4997	0.6817	0.93397
C3	C	0.83563	0.92268	0.80225
C3	C	0.89304	0.77217	0.10524
C4	C	0.88674	0.78629	0.08084
C3	C	0.6722	0.78824	0.2269
C1	C	0.69165	0.75168	0.20654
C2	C	0.69212	0.77656	0.20642
C3	C	0.71172	0.78901	0.18526
C3	C	0.54652	0.57614	0.01189
C1	C	0.52622	0.62657	0.99111
C2	C	0.5476	0.59925	0.98834
C3	C	0.57039	0.59668	0.96451
C3	C	0.67413	0.52632	0.08128
C1	C	0.6734	0.52293	0.04176
C2	C	0.66712	0.53939	0.05762
C4	C	0.66751	0.54139	0.09694
C1	C	0.64628	0.58814	0.10325
C2	C	0.6528	0.57003	0.08893
C3	C	0.65309	0.56774	0.04954
C3	C	0.64577	0.58284	0.06526
C3	C	0.67631	0.66115	0.99845
C3	C	0.67118	0.6514	0.02707
C4	C	0.72048	0.60217	0.90775
C1	C	0.7061	0.65006	0.9084
C2	C	0.70435	0.62181	0.92152
C3	C	0.71608	0.57708	0.9203
C1	C	0.6955	0.54246	0.96143
C2	C	0.69615	0.57106	0.94619
C3	C	0.68449	0.61557	0.94748
C3	C	0.68028	0.59044	0.95968
H1	H	0.90486	0.77891	0.10813
S1	S	0.89889	0.81506	0.05575
H1	H	0.67503	0.64904	0.99065
H1	H	0.6868	0.63094	0.03278
H1	H	0.85337	0.9141	0.7869
H1	H	0.65661	0.7792	0.24304
H1	H	0.67234	0.63015	0.9584
H1	H	0.66533	0.5857	0.98003
S1	S	0.74733	0.60776	0.87424
H1	H	0.72882	0.56167	0.91032
H1	H	0.52852	0.57767	0.03015
H1	H	0.57105	0.61396	0.94561
H1	H	0.6475	0.57809	0.03124
H1	H	0.63504	0.60472	0.05865
H1	H	0.68488	0.5044	0.08738
S1	S	0.67836	0.52306	0.1269
H1	H	0.72706	0.78042	0.16907
Cr2	Cr	0.64488	0.32322	0.03856
Cr1	Cr	0.32517	0.26937	0.80999
O3	O	0.01701	0.12995	0.19517
O2	O	0.29954	0.25714	0.84566
O3	O	0.22528	0.17815	0.94634
O3	O	0.1332	0.24448	0.80486
O2	O	0.14803	0.27046	0.76071
O2	O	0.66263	0.37853	0.99206
O3	O	0.64391	0.35659	0.03676
O2	O	0.71228	0.47509	0.96335
O2	O	0.73461	0.4708	0.98798
O2	O	0.82411	0.41083	0.88344
O3	O	0.85468	0.4191	0.88822
O3	O	0.81662	0.32954	0.05884
O3	O	0.87135	0.36979	0.9242
O2	O	0.74552	0.3324	0.11654
O3	O	0.77944	0.34979	0.10087
O3	O	0.6706	0.47089	0.0593
O2	O	0.7117	0.47509	0.03753
F1	F	0.61326	0.32478	0.06902
C4	C	0.03752	0.05972	0.21647
C3	C	0.26292	0.22746	0.87442
C3	C	0.24641	0.21183	0.89577
C4	C	0.19967	0.22632	0.75768
C1	C	0.15358	0.25617	0.78501
C2	C	0.18149	0.23344	0.78199
C3	C	0.18901	0.21744	0.80575
C4	C	0.62448	0.431	0.99718
C1	C	0.63823	0.37921	0.01442
C2	C	0.62817	0.40595	0.01939
C4	C	0.62741	0.40679	0.04322
C4	C	0.76664	0.43106	0.95752
C1	C	0.73441	0.47861	0.96179
C2	C	0.76019	0.46001	0.94751
C3	C	0.79177	0.41508	0.94369
C1	C	0.83278	0.40936	0.90203
C2	C	0.80912	0.42709	0.91867
C3	C	0.77838	0.47197	0.92305
C3	C	0.80224	0.45576	0.90827
C3	C	0.87632	0.32258	0.00875
C3	C	0.89297	0.32105	0.97937
C3	C	0.71617	0.38584	0.09577
C1	C	0.76244	0.34695	0.09346
C2	C	0.74432	0.37529	0.08126
C4	C	0.69975	0.41273	0.08503
C1	C	0.69726	0.45943	0.04385
C2	C	0.71176	0.42977	0.05859
C3	C	0.75598	0.39205	0.05554
C3	C	0.74002	0.41874	0.04446
H1	H	0.28301	0.21736	0.86211
H1	H	0.2544	0.19012	0.89884
H1	H	0.87282	0.34265	0.00876
H1	H	0.90447	0.29927	0.98038
S1	S	0.00806	0.05644	0.24769
S1	S	0.19538	0.24628	0.72407
H1	H	0.77763	0.38455	0.04405
H1	H	0.75021	0.431	0.02462
H1	H	0.70681	0.37327	0.11596
S1	S	0.66411	0.42314	0.10716
S1	S	0.61895	0.43473	0.96807
S1	S	0.62175	0.38049	0.07691
H1	H	0.7736	0.49402	0.91491
H1	H	0.8152	0.4656	0.88866
S1	S	0.7426	0.4129	0.98481
H1	H	0.79714	0.39314	0.95181
H1	H	0.17607	0.22272	0.82434
Cr2	Cr	0.319	0.64852	0.50018
Cr1	Cr	0.26879	0.33033	0.09045
O2	O	0.11859	0.00492	0.16897
O2	O	0.25882	0.30256	0.0931
O3	O	0.20007	0.21289	0.1247
O2	O	0.24686	0.13856	0.31292
O2	O	0.27154	0.15642	0.31392
O2	O	0.3748	0.66702	0.46814
O3	O	0.35124	0.64753	0.46789
O3	O	0.46945	0.71317	0.35295
O2	O	0.46445	0.73384	0.31073
O2	O	0.40731	0.82834	0.37899
O3	O	0.41636	0.85829	0.33504
O2	O	0.32516	0.81628	0.29838
O3	O	0.3671	0.87608	0.33117
O2	O	0.33028	0.74209	0.31708
O2	O	0.34775	0.77453	0.27834
O2	O	0.46913	0.66624	0.30563
O2	O	0.47096	0.70851	0.28095
F1	F	0.31951	0.61713	0.50055
C3	C	0.08477	0.06209	0.16962
C4	C	0.25286	0.25417	0.09498
C3	C	0.23934	0.2361	0.10427
C4	C	0.23147	0.20917	0.29951
C1	C	0.25904	0.15891	0.29821
C2	C	0.23646	0.18681	0.29301
C3	C	0.21775	0.1897	0.2832
C3	C	0.42536	0.6272	0.45221
C1	C	0.37463	0.64242	0.4715
C2	C	0.40093	0.63133	0.45028
C4	C	0.40253	0.63026	0.42624
C4	C	0.42596	0.76559	0.35482
C1	C	0.47193	0.73514	0.3286
C2	C	0.45306	0.76152	0.33488
C3	C	0.41055	0.79122	0.35849
C1	C	0.40558	0.83706	0.35333
C2	C	0.42131	0.81253	0.34395
C3	C	0.46328	0.78346	0.31961
C3	C	0.44774	0.80864	0.32417
C3	C	0.32342	0.83895	0.33307
C3	C	0.33219	0.85197	0.33945
C3	C	0.38979	0.72387	0.29091
C1	C	0.34502	0.75961	0.306
C2	C	0.37333	0.74097	0.30707
C4	C	0.4167	0.70683	0.29059
C1	C	0.45691	0.69312	0.30541
C2	C	0.42698	0.70578	0.30802
C3	C	0.38339	0.73984	0.32429
C3	C	0.40985	0.72218	0.32489
S1	S	0.26336	0.27256	0.0584
H1	H	0.23576	0.23382	0.08962
H1	H	0.32536	0.81754	0.34473
H1	H	0.34099	0.84038	0.35569
H1	H	0.10293	0.06326	0.15148
S1	S	0.25585	0.2125	0.30646
H1	H	0.37104	0.753	0.33675
H1	H	0.41782	0.7228	0.33707
H1	H	0.3819	0.72484	0.27751
S1	S	0.43774	0.69021	0.26468
H1	H	0.42503	0.62703	0.47058
S1	S	0.37496	0.62926	0.42205
H1	H	0.48373	0.78088	0.30439
H1	H	0.45683	0.82464	0.31283
S1	S	0.4093	0.73962	0.37898
H1	H	0.39032	0.79416	0.3741
H1	H	0.22153	0.17389	0.27667
Cr1	Cr	0.50359	0.02717	0.32714
Cr2	Cr	0.08873	0.8238	0.27538
O3	O	0.16822	0.19042	0.1256
O3	O	0.09396	0.85536	0.27103
O2	O	0.15088	0.95005	0.1775
O2	O	0.31682	0.80526	0.24531
O2	O	0.31645	0.76229	0.27262
O3	O	0.47564	0.98117	0.38352
O2	O	0.47639	0.02474	0.36389
O2	O	0.34817	0.96088	0.47621
O3	O	0.30533	0.98726	0.47239
O2	O	0.37889	0.88461	0.40902
O2	O	0.33425	0.89217	0.41697
O2	O	0.29685	0.0643	0.32967
O2	O	0.33288	0.92995	0.36784
O2	O	0.31047	0.11821	0.33665
O2	O	0.27394	0.10589	0.34976
O2	O	0.30621	0.05582	0.47118
O3	O	0.27948	0.03757	0.4754
F1	F	0.0692	0.84746	0.25121
C3	C	0.18571	0.16805	0.08261
C3	C	0.14345	0.8744	0.23168
C3	C	0.15405	0.89585	0.21346
C4	C	0.31089	0.76014	0.22866
C1	C	0.30263	0.78718	0.25709
C2	C	0.29971	0.7847	0.23471
C3	C	0.28491	0.80904	0.21864
C4	C	0.45415	0.98387	0.43808
C1	C	0.4792	0.0005	0.38649
C2	C	0.4562	0.00548	0.41266
C3	C	0.43359	0.02998	0.41117
C4	C	0.33798	0.91661	0.47138
C1	C	0.32321	0.96031	0.48046
C2	C	0.32935	0.94556	0.46257
C3	C	0.34357	0.90384	0.45411
C1	C	0.35317	0.90441	0.40808
C2	C	0.34341	0.91902	0.42718
C3	C	0.32854	0.96069	0.43554
C3	C	0.33583	0.94749	0.41794
C3	C	0.29941	0.01759	0.31167
C3	C	0.30708	0.98835	0.3202
C4	C	0.2861	0.09725	0.39734
C1	C	0.30087	0.09638	0.3491
C2	C	0.30137	0.08304	0.37806
C3	C	0.28819	0.08366	0.42361
C1	C	0.30473	0.04102	0.46032
C2	C	0.30571	0.05654	0.43103
C3	C	0.31914	0.05594	0.38559
C3	C	0.32144	0.04287	0.41177
H1	H	0.14637	0.86005	0.22379
H1	H	0.16578	0.8969	0.19233
H1	H	0.27693	0.02634	0.32183
H1	H	0.29623	0.98048	0.31721
H1	H	0.1812	0.15188	0.10197
S1	S	0.32773	0.7261	0.24911
H1	H	0.33136	0.0449	0.37108
H1	H	0.33495	0.02183	0.41728
S1	S	0.26435	0.13318	0.38993
H1	H	0.27587	0.0942	0.43855
S1	S	0.483	0.95285	0.44434
H1	H	0.435	0.04754	0.39272
H1	H	0.32298	0.98279	0.42761
H1	H	0.33582	0.95944	0.39709
S1	S	0.34491	0.89432	0.50335
H1	H	0.34984	0.88168	0.46104
H1	H	0.27534	0.82781	0.22332
Cr2	Cr	0.02945	0.50455	0.64331
Cr1	Cr	0.80944	0.10158	0.33074
O3	O	0.20834	0.16681	0.00265
O2	O	0.84363	0.10778	0.30341
O3	O	0.96162	0.13494	0.21464
O3	O	0.81538	0.31624	0.12933
O2	O	0.77162	0.31659	0.15034
O2	O	0.98732	0.4731	0.66102
O3	O	0.03056	0.47398	0.63908
O3	O	0.95577	0.35143	0.71366
O2	O	0.97954	0.30717	0.73297
O2	O	0.87957	0.38152	0.82532
O2	O	0.88851	0.33715	0.85456
O3	O	0.05901	0.29509	0.81443
O2	O	0.92545	0.33654	0.86798
O2	O	0.10898	0.31249	0.74006
O3	O	0.09942	0.27352	0.77438
O2	O	0.05448	0.30224	0.67049
O2	O	0.02964	0.27871	0.70951
F1	F	0.06134	0.50504	0.6132
C4	C	0.19693	0.20992	0.03225
C3	C	0.87015	0.14938	0.25437
C3	C	0.893	0.15809	0.23636
C4	C	0.778	0.2912	0.20461
C1	C	0.79788	0.30208	0.15191
C2	C	0.79793	0.2994	0.17862
C3	C	0.81865	0.30515	0.17792
C4	C	0.99336	0.4539	0.62032
C1	C	0.00786	0.47652	0.63574
C2	C	0.01428	0.45402	0.62603
C4	C	0.03797	0.4298	0.62793
C4	C	0.91336	0.32935	0.77888
C1	C	0.95331	0.32635	0.73355
C2	C	0.93975	0.331	0.76078
C3	C	0.90066	0.33776	0.80178
C1	C	0.9001	0.35635	0.8318
C2	C	0.91438	0.34627	0.80793
C3	C	0.95348	0.33904	0.76754
C3	C	0.94117	0.34605	0.79112
C3	C	0.00673	0.29857	0.84879
C3	C	0.97837	0.30574	0.86203
C3	C	0.08945	0.28184	0.72897
C1	C	0.08825	0.30075	0.75913
C2	C	0.07524	0.3006	0.7432
C4	C	0.07768	0.28111	0.71424
C1	C	0.03729	0.30165	0.69699
C2	C	0.05157	0.30057	0.71249
C3	C	0.04926	0.3194	0.74184
C3	C	0.03788	0.31979	0.72607
H1	H	0.85261	0.16166	0.26663
H1	H	0.89252	0.17708	0.23495
H1	H	0.01589	0.28769	0.83459
H1	H	0.96719	0.29874	0.85854
S1	S	0.20485	0.23714	0.00007
S1	S	0.74996	0.28191	0.21081
H1	H	0.03792	0.33395	0.75271
H1	H	0.01818	0.33507	0.72454
H1	H	0.10969	0.26743	0.72973
S1	S	0.09703	0.25498	0.69787
S1	S	0.96498	0.48312	0.60711
S1	S	0.07143	0.42803	0.62329
H1	H	0.97373	0.34037	0.75418
H1	H	0.95226	0.35205	0.79578
S1	S	0.89463	0.31641	0.77452
H1	H	0.87995	0.33756	0.81499
H1	H	0.83496	0.3104	0.15896
Cr1	Cr	0.50054	0.65431	0.02877
Cr1	Cr	0.09157	0.32878	0.81038
O2	O	0.1693	0.01041	0.20476
O2	O	0.09944	0.30036	0.84338
O2	O	0.1482	0.22684	0.94622
O2	O	0.32834	0.13448	0.79166
O3	O	0.30188	0.16537	0.76324
O3	O	0.46933	0.6718	0.98615
O2	O	0.47091	0.64799	0.02972
O2	O	0.35056	0.71463	0.96317
O3	O	0.30813	0.73465	0.99024
O3	O	0.37579	0.83151	0.89244
O2	O	0.33061	0.85979	0.90072
O2	O	0.29324	0.82194	0.06005
O2	O	0.33248	0.87559	0.93457
O3	O	0.28446	0.74779	0.1257
O2	O	0.27257	0.7818	0.09025
O2	O	0.30272	0.66703	0.05951
O3	O	0.27882	0.70912	0.03968
C4	C	0.17126	0.06721	0.18136
C3	C	0.14115	0.26143	0.86966
C3	C	0.14996	0.24514	0.89248
C4	C	0.32315	0.19165	0.77489
C1	C	0.30333	0.15541	0.78952
C2	C	0.30271	0.17893	0.79304
C3	C	0.28123	0.18892	0.81439
C3	C	0.45053	0.62144	1.00232
C1	C	0.47181	0.64648	0.00662
C2	C	0.4473	0.63923	0.01371
C4	C	0.42	0.65372	0.02757
C4	C	0.3455	0.76732	0.96132
C1	C	0.32587	0.73647	0.96337
C2	C	0.33214	0.76249	0.9509
C3	C	0.34834	0.793	0.95021
C1	C	0.35	0.83777	0.91251
C2	C	0.3412	0.81292	0.9271
C3	C	0.3238	0.78302	0.92843
C3	C	0.32903	0.80768	0.91611
C3	C	0.30179	0.88017	0.02031
C3	C	0.3018	0.89126	0.99074
C3	C	0.30569	0.71124	0.09813
C1	C	0.2942	0.75911	0.09748
C2	C	0.30175	0.73943	0.08406
C4	C	0.30849	0.69452	0.08598
C1	C	0.30329	0.6936	0.04502
C2	C	0.3056	0.70679	0.05967
C3	C	0.30243	0.75033	0.05709
C3	C	0.30321	0.73468	0.04568
H1	H	0.14662	0.27974	0.85581
H1	H	0.16258	0.25116	0.89509
H1	H	0.28017	0.88474	0.03454
H1	H	0.29441	0.91406	0.98355
S1	S	0.14145	0.07424	0.17464
S1	S	0.34993	0.18353	0.74412
H1	H	0.30016	0.77179	0.04539
H1	H	0.30085	0.74528	0.02587
H1	H	0.30627	0.70227	0.11876
S1	S	0.31573	0.65811	0.10553
S1	S	0.484	0.6025	0.9833
S1	S	0.41171	0.68041	0.03922
H1	H	0.31383	0.77967	0.92
H1	H	0.32364	0.82257	0.89794
S1	S	0.36411	0.74076	0.98507
H1	H	0.35742	0.7969	0.95894
H1	H	0.26513	0.1799	0.82803
Cr1	Cr	0.02972	0.31373	0.49917
Cr1	Cr	0.817	0.26557	0.0935
O2	O	0.196	0.13007	0.16142
O2	O	0.85143	0.25474	0.0979
O2	O	0.96499	0.19243	0.13316
O3	O	0.81505	0.24801	0.31727
O2	O	0.76918	0.2678	0.32352
O2	O	0.97968	0.36897	0.47781
O2	O	0.0254	0.34833	0.46994
O2	O	0.94986	0.48732	0.36596
O3	O	0.97542	0.4712	0.33061
O3	O	0.86442	0.42778	0.37107
O2	O	0.90715	0.41277	0.33963
O2	O	0.05573	0.32729	0.2933
O2	O	0.93037	0.36883	0.32436
O2	O	0.12581	0.34386	0.2785
O2	O	0.08383	0.35785	0.27656
O2	O	0.05059	0.45814	0.33054
O3	O	0.02642	0.45746	0.31228
C3	C	0.21568	0.06078	0.19141
C3	C	0.87143	0.24855	0.14573
C3	C	0.89329	0.23277	0.1561
C4	C	0.78815	0.20809	0.33265
C1	C	0.79488	0.25505	0.30744
C2	C	0.79523	0.22947	0.30802
C3	C	0.80338	0.22671	0.28283
C3	C	0.98184	0.42062	0.45719
C1	C	0.00279	0.37014	0.47705
C2	C	0.00568	0.39746	0.45498
C4	C	0.02843	0.40039	0.43042
C3	C	0.91704	0.45983	0.37675
C1	C	0.94961	0.48745	0.34266
C2	C	0.92937	0.47476	0.34977
C4	C	0.90262	0.44383	0.38246
C1	C	0.89295	0.41912	0.3642
C2	C	0.90143	0.44146	0.36056
C3	C	0.92547	0.47497	0.32847
C3	C	0.91172	0.45869	0.33373
C3	C	0.01242	0.30967	0.30094
C3	C	0.98272	0.33037	0.30544
C3	C	0.09601	0.382	0.31332
C1	C	0.09788	0.35361	0.29184
C2	C	0.09101	0.38084	0.29348
C4	C	0.08778	0.40726	0.31631
C1	C	0.05167	0.45716	0.30746
C2	C	0.07243	0.43152	0.30011
C3	C	0.08031	0.40553	0.27458
C3	C	0.07113	0.43036	0.27795
H1	H	0.8507	0.25465	0.15957
H1	H	0.88908	0.22646	0.17787
H1	H	0.02518	0.31629	0.27898
H1	H	0.97268	0.3282	0.29559
H1	H	0.23317	0.05836	0.19466
S1	S	0.77581	0.20945	0.36684
H1	H	0.07775	0.40577	0.25778
H1	H	0.06073	0.44873	0.26439
H1	H	0.10695	0.36319	0.32605
S1	S	0.10448	0.40721	0.33481
H1	H	0.96477	0.41892	0.47635
S1	S	0.06325	0.376	0.42736
H1	H	0.93452	0.48659	0.30743
H1	H	0.91038	0.45865	0.31637
H1	H	0.91927	0.45988	0.39358
S1	S	0.88563	0.42807	0.41847
H1	H	0.80921	0.24263	0.2638
Cr1	Cr	0.64473	0.50105	0.32534
Cr2	Cr	0.33265	0.09631	0.26618
O2	O	0.01974	0.16177	0.13175
O3	O	0.30502	0.09976	0.25583
O2	O	0.22054	0.13511	0.18764
O2	O	0.12693	0.33103	0.24149
O2	O	0.16216	0.30245	0.2602
O2	O	0.66816	0.47119	0.37797
O2	O	0.64553	0.46982	0.35825
O3	O	0.71369	0.3497	0.47494
O2	O	0.73508	0.30651	0.47319
O3	O	0.83763	0.36693	0.42006
O2	O	0.85407	0.33445	0.40021
O3	O	0.81819	0.30847	0.32068
O2	O	0.8928	0.33229	0.35231
O2	O	0.74458	0.31324	0.3376
O3	O	0.78265	0.27956	0.34994
O2	O	0.6677	0.30661	0.47106
O2	O	0.70868	0.27997	0.47684
F1	F	0.35813	0.08161	0.23833
C3	C	0.03657	0.19154	0.06164
C3	C	0.2735	0.13045	0.22177
C4	C	0.25837	0.13834	0.20542
C3	C	0.17982	0.33092	0.2027
C1	C	0.14911	0.30623	0.24383
C2	C	0.17048	0.30865	0.21598
C3	C	0.18418	0.28741	0.20515
C3	C	0.63276	0.45213	0.43075
C1	C	0.64251	0.47395	0.38042
C2	C	0.63248	0.45253	0.40721
C4	C	0.62681	0.43084	0.40952
C3	C	0.7826	0.32123	0.47047
C1	C	0.73511	0.32543	0.48017
C2	C	0.76091	0.33216	0.46111
C4	C	0.80633	0.32839	0.45358
C1	C	0.83228	0.35721	0.40703
C2	C	0.80792	0.34789	0.42666
C3	C	0.76316	0.3502	0.43406
C3	C	0.78623	0.35831	0.41726
C3	C	0.8372	0.34205	0.32165
C3	C	0.85071	0.34913	0.32919
C3	C	0.73123	0.28731	0.39539
C1	C	0.76362	0.30599	0.34925
C2	C	0.74646	0.30532	0.37844
C4	C	0.71297	0.28765	0.42178
C1	C	0.69498	0.30489	0.46133
C2	C	0.70972	0.30656	0.4317
C3	C	0.7429	0.32425	0.38812
C3	C	0.72459	0.32491	0.41447
H1	H	0.29541	0.12688	0.21237
S1	S	0.27888	0.13947	0.16993
H1	H	0.81518	0.34632	0.33173
H1	H	0.839	0.35818	0.34526
H1	H	0.01664	0.1951	0.06221
H1	H	0.16935	0.34706	0.21151
H1	H	0.75416	0.33855	0.37529
H1	H	0.72255	0.33932	0.42182
H1	H	0.73335	0.27311	0.38774
S1	S	0.69437	0.26342	0.44149
H1	H	0.63577	0.46889	0.4301
S1	S	0.61853	0.43159	0.38367
H1	H	0.74666	0.35873	0.42619
H1	H	0.78713	0.37274	0.39684
H1	H	0.781	0.30701	0.49104
S1	S	0.83301	0.31216	0.46864
H1	H	0.17778	0.26962	0.21567
Cr1	Cr	0.32063	0.02326	0.65272
Cr2	Cr	0.26041	0.8165	0.32678
O2	O	0.11766	0.20977	0.00166
O3	O	0.25331	0.84905	0.29588
O2	O	0.18181	0.95414	0.22237
O2	O	0.24059	0.80168	0.13158
O3	O	0.26195	0.76992	0.16453
O2	O	0.3761	0.97987	0.67146
O2	O	0.3546	0.02349	0.64885
O2	O	0.47255	0.95981	0.71137
O3	O	0.46987	0.98579	0.73123
O3	O	0.40075	0.89055	0.83134
O2	O	0.41148	0.89859	0.85792
O2	O	0.33084	0.0607	0.81582
O2	O	0.36072	0.93392	0.87418
O3	O	0.34242	0.12737	0.73985
O2	O	0.35861	0.09261	0.77269
O2	O	0.47293	0.05514	0.66382
O3	O	0.47605	0.03443	0.70555
F1	F	0.2297	0.83655	0.34847
C3	C	0.08786	0.18256	0.06037
C3	C	0.22836	0.87459	0.25386
C3	C	0.21392	0.89819	0.23723
C4	C	0.19826	0.7898	0.18359
C1	C	0.24536	0.79712	0.15445
C2	C	0.21778	0.80097	0.1773
C3	C	0.21243	0.81366	0.19469
C4	C	0.42991	0.98559	0.62899
C1	C	0.37753	0.00009	0.64593
C2	C	0.40385	0.00591	0.63496
C3	C	0.40271	0.03063	0.6336
C4	C	0.42724	0.95766	0.76456
C1	C	0.47617	0.95928	0.73289
C2	C	0.45618	0.94723	0.75922
C3	C	0.41001	0.94679	0.79071
C1	C	0.40146	0.91047	0.83655
C2	C	0.42062	0.9244	0.81084
C3	C	0.46674	0.92517	0.77978
C3	C	0.44926	0.91339	0.80508
C3	C	0.31131	0.01938	0.87321
C3	C	0.3176	0.99123	0.89048
C4	C	0.39109	0.09822	0.70338
C1	C	0.35145	0.09906	0.75097
C2	C	0.37719	0.08513	0.73128
C3	C	0.41828	0.08382	0.69018
C1	C	0.4609	0.04048	0.69067
C2	C	0.43137	0.05635	0.70352
C3	C	0.38989	0.05706	0.74344
C3	C	0.41663	0.04313	0.73007
H1	H	0.21785	0.86066	0.27085
H1	H	0.19275	0.90127	0.24183
H1	H	0.30798	0.03442	0.88067
H1	H	0.30038	0.98896	0.91033
H1	H	0.10763	0.17904	0.06016
S1	S	0.20352	0.76996	0.16506
H1	H	0.37965	0.04617	0.76436
H1	H	0.42598	0.02204	0.74105
S1	S	0.3748	0.13182	0.6823
H1	H	0.42913	0.09403	0.6693
S1	S	0.43493	0.95466	0.6257
H1	H	0.38332	0.04727	0.63643
H1	H	0.4887	0.91673	0.77604
H1	H	0.45817	0.89561	0.82006
S1	S	0.41011	0.98155	0.73892
H1	H	0.38813	0.95511	0.79494
H1	H	0.22722	0.82174	0.19073
Cr1	Cr	0.32685	0.49994	0.0309
Cr1	Cr	0.26795	0.10089	0.80797
O2	O	0.13641	0.1641	0.18696
O2	O	0.26368	0.09851	0.84312
O2	O	0.17579	0.15112	0.94473
O3	O	0.23698	0.31946	0.81638
O2	O	0.25683	0.32218	0.77161
O2	O	0.38348	0.46627	0.9911
O2	O	0.36203	0.4712	0.03279
O3	O	0.47033	0.35748	0.96228
O2	O	0.47163	0.31331	0.98086
O2	O	0.41658	0.38257	0.87285
O3	O	0.41972	0.33837	0.88723
O2	O	0.33282	0.29871	0.05725
O3	O	0.37085	0.3376	0.92644
O3	O	0.33571	0.30842	0.11617
O2	O	0.35223	0.27473	0.09943
O2	O	0.47357	0.29993	0.05404
O2	O	0.47861	0.27972	0.02814
C3	C	0.07832	0.17003	0.20566
C3	C	0.22801	0.13727	0.8707
C3	C	0.21008	0.14631	0.89328
C4	C	0.19753	0.33318	0.79059
C1	C	0.24412	0.30735	0.79798
C2	C	0.21823	0.30814	0.79864
C3	C	0.21507	0.28323	0.80644
C3	C	0.43676	0.44936	0.99463
C1	C	0.38534	0.47233	0.00932
C2	C	0.41105	0.45078	0.01578
C3	C	0.40948	0.429	0.04096
C4	C	0.42985	0.35537	0.95018
C1	C	0.47695	0.33465	0.95655
C2	C	0.45887	0.34164	0.94174
C3	C	0.41471	0.36002	0.93554
C1	C	0.41144	0.35999	0.89566
C2	C	0.42777	0.35201	0.91248
C3	C	0.47151	0.33291	0.91912
C3	C	0.4563	0.33854	0.90422
C3	C	0.3446	0.30053	0.00606
C3	C	0.35195	0.30747	0.978
C4	C	0.38643	0.32043	0.08186
C1	C	0.34869	0.3022	0.09226
C2	C	0.37687	0.30577	0.07729
C3	C	0.41427	0.3186	0.06873
C1	C	0.4625	0.30222	0.03698
C2	C	0.43293	0.30291	0.05149
C3	C	0.39549	0.29217	0.05789
C3	C	0.42298	0.29049	0.04547
H1	H	0.21916	0.13681	0.85904
H1	H	0.18814	0.15269	0.89804
H1	H	0.36053	0.28692	0.01533
H1	H	0.37325	0.29821	0.96689
H1	H	0.0879	0.15446	0.22103
S1	S	0.19924	0.36685	0.78006
H1	H	0.38891	0.28194	0.05277
H1	H	0.43639	0.27953	0.03091
S1	S	0.36622	0.34437	0.10126
H1	H	0.42147	0.32993	0.07171
S1	S	0.44179	0.47781	0.96269
H1	H	0.39064	0.43074	0.05835
H1	H	0.49325	0.32148	0.91309
H1	H	0.46679	0.33233	0.88626
S1	S	0.41091	0.36955	0.97796
H1	H	0.39274	0.37072	0.94158
H1	H	0.2307	0.26396	0.8126
Cr1	Cr	0.64945	0.03086	0.49959
Cr1	Cr	0.32126	0.81073	0.10383
O2	O	0.01958	0.18902	0.16474
O2	O	0.29472	0.84698	0.09972
O3	O	0.22734	0.95353	0.14368
O2	O	0.13892	0.79246	0.32777
O2	O	0.16328	0.76795	0.29926
O3	O	0.66433	0.98514	0.47298
O2	O	0.64392	0.02988	0.47084
O2	O	0.72193	0.96557	0.34045
O2	O	0.74098	0.99168	0.29744
O2	O	0.85009	0.87299	0.34759
O2	O	0.86034	0.91406	0.32566
O3	O	0.81245	0.06306	0.30564
O2	O	0.89738	0.93222	0.3158
O2	O	0.74219	0.11883	0.30818
O3	O	0.77907	0.10058	0.27562
O3	O	0.67216	0.06134	0.30084
O2	O	0.7131	0.04265	0.27361
C3	C	0.05197	0.20997	0.16758
C3	C	0.2619	0.87655	0.13763
C3	C	0.24688	0.90015	0.14515
C4	C	0.20788	0.7863	0.27873
C1	C	0.15537	0.79339	0.3007
C2	C	0.18022	0.79993	0.29298
C3	C	0.17563	0.81912	0.30321
C4	C	0.63049	0.99045	0.44936
C1	C	0.63969	0.00719	0.47446
C2	C	0.63164	0.01274	0.45104
C4	C	0.63142	0.03708	0.42759
C3	C	0.78522	0.92531	0.30797
C1	C	0.74117	0.96502	0.31465
C2	C	0.76907	0.94768	0.31751
C4	C	0.81128	0.90881	0.31081
C1	C	0.84966	0.89814	0.32566
C2	C	0.82114	0.91457	0.32375
C3	C	0.77883	0.95328	0.33046
C3	C	0.80444	0.93673	0.33383
C3	C	0.83842	0.00874	0.32134
C3	C	0.85378	0.98133	0.32457
C3	C	0.72803	0.09811	0.2847
C1	C	0.7604	0.09462	0.30212
C2	C	0.74349	0.08254	0.30241
C4	C	0.71269	0.08738	0.2836
C1	C	0.69941	0.04607	0.2989
C2	C	0.71248	0.06042	0.301
C3	C	0.74308	0.05602	0.3197
C3	C	0.72747	0.04514	0.31915
H1	H	0.28228	0.86454	0.13922
H1	H	0.25611	0.90504	0.153
H1	H	0.81814	0.01608	0.32034
H1	H	0.84527	0.96873	0.32505
H1	H	0.04156	0.22541	0.15285
S1	S	0.21979	0.76005	0.26416
H1	H	0.7552	0.04357	0.33317
H1	H	0.72783	0.02434	0.33227
H1	H	0.72833	0.11867	0.27139
S1	S	0.69398	0.10893	0.25931
S1	S	0.62502	0.96008	0.47852
S1	S	0.62273	0.07053	0.42849
H1	H	0.76648	0.97039	0.33815
H1	H	0.81128	0.94147	0.34413
H1	H	0.77753	0.92079	0.29825
S1	S	0.83157	0.88014	0.29796
H1	H	0.15493	0.83073	0.31309
Cr2	Cr	0.04386	0.65147	0.31107
Cr1	Cr	0.80849	0.33449	0.26131
O3	O	0.20773	0.00975	0.11516
O2	O	0.84331	0.30803	0.24908
O2	O	0.96413	0.21491	0.19213
O3	O	0.81383	0.12865	0.24442
O2	O	0.76917	0.15278	0.26418
O2	O	0.99902	0.67624	0.36283
O3	O	0.0435	0.6536	0.34234
O3	O	0.96314	0.71531	0.46783
O2	O	0.98268	0.73937	0.46752
O2	O	0.87216	0.84533	0.41039
O3	O	0.90835	0.85737	0.40023
O2	O	0.06171	0.83088	0.33815
O3	O	0.92809	0.89414	0.35573
O2	O	0.12319	0.7486	0.34061
O2	O	0.09197	0.78076	0.36064
O2	O	0.05416	0.67176	0.47436
O2	O	0.03185	0.71493	0.47417
F1	F	0.07587	0.62157	0.31243
C3	C	0.20855	0.03618	0.05673
C3	C	0.88525	0.27256	0.22184
C4	C	0.9084	0.25554	0.20716
C4	C	0.78729	0.1817	0.20531
C1	C	0.79636	0.15249	0.25099
C2	C	0.79886	0.17562	0.22423
C3	C	0.81584	0.18975	0.21661
C3	C	1.01338	0.62567	0.41496
C1	C	0.02029	0.6515	0.36544
C2	C	0.02567	0.64387	0.39081
C4	C	0.03768	0.658	0.39244
C3	C	0.92518	0.76141	0.44758
C1	C	0.95759	0.73687	0.47473
C2	C	0.93961	0.76265	0.45941
C4	C	0.91039	0.78513	0.43128
C1	C	0.9007	0.83687	0.40356
C2	C	0.9105	0.81101	0.42595
C3	C	0.93685	0.78824	0.45697
C3	C	0.92259	0.81203	0.4405
C3	C	0.00511	0.84937	0.34656
C3	C	0.98189	0.85385	0.33895
C3	C	0.09677	0.72496	0.39859
C1	C	0.09519	0.76093	0.35264
C2	C	0.08411	0.73999	0.3785
C4	C	0.08405	0.70943	0.42496
C1	C	0.04011	0.69787	0.46031
C2	C	0.05803	0.7087	0.43137
C3	C	0.05913	0.73813	0.38446
C3	C	0.04629	0.72246	0.41066
H1	H	0.87965	0.2945	0.2116
S1	S	0.92603	0.27354	0.1719
H1	H	0.01459	0.82706	0.35652
H1	H	0.96617	0.84567	0.35785
H1	H	0.22472	0.01647	0.05689
S1	S	0.76671	0.1634	0.21163
H1	H	0.04894	0.74984	0.36928
H1	H	0.02629	0.72237	0.41526
H1	H	0.11602	0.72655	0.39401
S1	S	0.10136	0.69208	0.45004
H1	H	1.00397	0.61501	0.41378
S1	S	0.05441	0.68196	0.3627
H1	H	0.94668	0.78982	0.46693
H1	H	0.92211	0.83123	0.43859
H1	H	0.92564	0.74177	0.45067
S1	S	0.8923	0.78002	0.41812
H1	H	0.82626	0.18416	0.23002
Cr2	Cr	0.4967	0.32137	0.64571
Cr2	Cr	0.10082	0.26681	0.32025
O2	O	0.16815	0.1192	-0.00082
O3	O	0.0968	0.26166	0.29324
O2	O	0.13965	0.19729	0.2054
O2	O	0.31875	0.24396	0.12814
O3	O	0.31632	0.26699	0.15044
O2	O	0.46899	0.37546	0.66612
O3	O	0.46804	0.35712	0.6418
O3	O	0.35079	0.47367	0.71318
O2	O	0.30786	0.47079	0.73209
O2	O	0.3761	0.41255	0.82512
O2	O	0.33151	0.41792	0.85622
O3	O	0.29521	0.33151	0.81464
O2	O	0.32216	0.36825	0.8884
O2	O	0.29946	0.33953	0.74375
O3	O	0.26682	0.35406	0.78033
O2	O	0.30579	0.47121	0.66593
O2	O	0.27884	0.47932	0.7053
F1	F	0.09019	0.23647	0.34588
F1	F	0.49847	0.32388	0.61275
C3	C	0.1672	0.08716	0.05647
C3	C	0.13459	0.22927	0.25724
C3	C	0.14543	0.21523	0.23906
C3	C	0.3304	0.20976	0.17862
C1	C	0.30335	0.25284	0.15084
C2	C	0.30465	0.22725	0.17558
C3	C	0.28122	0.22009	0.1952
C3	C	0.45213	0.42847	0.63274
C1	C	0.47301	0.37838	0.63995
C2	C	0.45298	0.40648	0.62919
C4	C	0.43257	0.41138	0.62
C4	C	0.34835	0.43019	0.76467
C1	C	0.32571	0.47736	0.73433
C2	C	0.33083	0.45799	0.76083
C3	C	0.35408	0.4143	0.78909
C1	C	0.35152	0.40771	0.83475
C2	C	0.34126	0.42427	0.81076
C3	C	0.31813	0.46824	0.78238
C3	C	0.32307	0.45155	0.8072
C3	C	0.32948	0.33923	0.82773
C3	C	0.33792	0.34929	0.83774
C3	C	0.31703	0.38334	0.71853
C1	C	0.2938	0.35144	0.76183
C2	C	0.29687	0.37942	0.74465
C4	C	0.31922	0.40932	0.70096
C1	C	0.30303	0.46137	0.69354
C2	C	0.30075	0.43255	0.7096
C3	C	0.27916	0.40199	0.75357
C3	C	0.28109	0.42793	0.73649
H1	H	0.13318	0.21764	0.27851
H1	H	0.15199	0.19303	0.24693
H1	H	0.33307	0.3471	0.80592
H1	H	0.34649	0.36544	0.82393
H1	H	0.15115	0.10687	0.05673
H1	H	0.3485	0.21536	0.16351
H1	H	0.26372	0.39972	0.77384
H1	H	0.26713	0.44429	0.74511
H1	H	0.33113	0.36587	0.71164
S1	S	0.34778	0.40993	0.66901
H1	H	0.46816	0.42613	0.63818
S1	S	0.43528	0.38838	0.60666
H1	H	0.30469	0.48939	0.77982
H1	H	0.31363	0.46053	0.82303
S1	S	0.36582	0.41382	0.73877
H1	H	0.3697	0.39445	0.79064
H1	H	0.26101	0.23374	0.19384
Cr1	Cr	0.64647	0.32189	0.50049
Cr1	Cr	0.325	0.2724	0.09327
O2	O	0.00499	0.1189	0.17147
O2	O	0.29943	0.26703	0.08756
O2	O	0.23427	0.17638	0.14033
O3	O	0.13798	0.24126	0.3116
O2	O	0.15409	0.26719	0.31303
O3	O	0.66644	0.37521	0.47352
O2	O	0.64315	0.35686	0.47122
O2	O	0.71708	0.47344	0.34826
O3	O	0.73444	0.47395	0.30449
O3	O	0.82457	0.41322	0.3774
O2	O	0.85779	0.42482	0.33551
O2	O	0.82249	0.34235	0.27873
O2	O	0.87807	0.37872	0.32505
O2	O	0.74539	0.34457	0.28587
O2	O	0.77631	0.365	0.26846
O2	O	0.66328	0.47422	0.30763
O3	O	0.70426	0.47941	0.2804
C3	C	0.06132	0.08548	0.17091
C3	C	0.25066	0.24028	0.14152
C3	C	0.23614	0.22308	0.15077
C3	C	0.20633	0.23088	0.30031
C1	C	0.15803	0.25356	0.29757
C2	C	0.18638	0.2318	0.29361
C3	C	0.19312	0.21186	0.28343
C3	C	0.63259	0.42889	0.45419
C1	C	0.64079	0.3784	0.47621
C2	C	0.63205	0.40549	0.4547
C3	C	0.6273	0.40734	0.43301
C4	C	0.78381	0.47583	0.31734
C1	C	0.73657	0.48057	0.32243
C2	C	0.76477	0.46373	0.32504
C3	C	0.8078	0.45957	0.32438
C1	C	0.8363	0.41402	0.35015
C2	C	0.81384	0.4311	0.33769
C3	C	0.77188	0.43504	0.33669
C3	C	0.79629	0.41893	0.34267
C4	C	0.88068	0.32366	0.28923
C3	C	0.894	0.33182	0.29632
C4	C	0.71846	0.4044	0.2797
C1	C	0.75514	0.35726	0.29144
C2	C	0.73319	0.38283	0.29772
C3	C	0.70328	0.43002	0.28344
C1	C	0.69082	0.46322	0.30513
C2	C	0.70285	0.43468	0.3044
C3	C	0.73094	0.38718	0.31983
C3	C	0.71597	0.41296	0.32311
H1	H	0.25616	0.24068	0.15585
H1	H	0.22997	0.21101	0.17231
S1	S	0.90095	0.30697	0.26344
H1	H	0.91597	0.32791	0.28662
H1	H	0.06171	0.10435	0.15363
H1	H	0.20235	0.24706	0.3065
H1	H	0.74237	0.37109	0.33351
H1	H	0.71577	0.41632	0.33941
S1	S	0.71935	0.40075	0.25079
H1	H	0.69283	0.44686	0.26917
H1	H	0.63545	0.42827	0.47103
H1	H	0.62517	0.39006	0.43372
H1	H	0.75799	0.42517	0.34204
H1	H	0.80087	0.39704	0.35227
S1	S	0.77909	0.51178	0.29759
H1	H	0.82142	0.46928	0.31993
H1	H	0.17871	0.21266	0.27693
Cr1	Cr	0.31896	0.64764	0.03407
Cr2	Cr	0.26699	0.32488	0.81482
O2	O	0.13067	0.01877	0.18977
O3	O	0.26485	0.29657	0.84991
O2	O	0.19131	0.21428	0.95995
O2	O	0.24071	0.13718	0.805
O3	O	0.2646	0.15356	0.76044
O2	O	0.37497	0.66516	0.98759
O2	O	0.35328	0.64405	0.03299
O3	O	0.4728	0.71902	0.95763
O2	O	0.47204	0.74058	0.98019
O3	O	0.41755	0.84947	0.87433
O2	O	0.40533	0.86444	0.90931
O2	O	0.33121	0.81569	0.06605
O2	O	0.35659	0.90003	0.92932
O3	O	0.33559	0.74156	0.11773
O2	O	0.34971	0.77549	0.10872
O2	O	0.47184	0.67642	0.05178
O2	O	0.47741	0.71779	0.02865
F1	F	0.24058	0.35002	0.83282
C3	C	0.06127	0.03638	0.21499
C3	C	0.22752	0.26804	0.88501
C4	C	0.21067	0.25266	0.90708
C3	C	0.22269	0.20235	0.75892
C1	C	0.25186	0.15788	0.7854
C2	C	0.2288	0.18538	0.78336
C3	C	0.21242	0.1939	0.80636
C3	C	0.42724	0.61969	1.00354
C1	C	0.37658	0.64075	0.00987
C2	C	0.40073	0.63512	0.0161
C3	C	0.39749	0.65094	0.02908
C3	C	0.47295	0.78579	0.91725
C1	C	0.4791	0.74006	0.95449
C2	C	0.46133	0.76662	0.94026
C4	C	0.4564	0.81136	0.90459
C1	C	0.40799	0.84367	0.9027
C2	C	0.4275	0.8174	0.91505
C3	C	0.43267	0.77323	0.95108
C3	C	0.41603	0.79843	0.93855
C3	C	0.34091	0.84031	0.00949
C3	C	0.34685	0.8554	0.98157
C4	C	0.3957	0.72119	0.09693
C1	C	0.34908	0.76049	0.09737
C2	C	0.37827	0.7453	0.08291
C3	C	0.42187	0.70731	0.08186
C1	C	0.4607	0.70366	0.03646
C2	C	0.43205	0.71785	0.05311
C3	C	0.38855	0.75577	0.05422
C3	C	0.41542	0.74277	0.03959
H1	H	0.21984	0.29006	0.88023
S1	S	0.17685	0.27319	0.92469
H1	H	0.35432	0.81938	0.01573
H1	H	0.36552	0.8462	0.9672
H1	H	0.06141	0.01739	0.23219
H1	H	0.23562	0.19674	0.74058
H1	H	0.37584	0.77433	0.04309
H1	H	0.42293	0.75183	0.0175
S1	S	0.38598	0.70729	0.13412
H1	H	0.43445	0.68843	0.09275
H1	H	0.42973	0.60775	0.99308
H1	H	0.377	0.6635	0.0382
H1	H	0.4232	0.75903	0.96945
H1	H	0.39405	0.80361	0.94762
H1	H	0.49483	0.78111	0.90957
S1	S	0.47319	0.83572	0.87565
H1	H	0.21721	0.18184	0.82513
Cr1	Cr	0.50039	0.03001	0.644
Cr1	Cr	0.10095	0.81183	0.33076
O2	O	0.16177	0.19206	0.01468
O2	O	0.10874	0.84479	0.30462
O2	O	0.13741	0.96338	0.213
O2	O	0.31274	0.80742	0.1407
O3	O	0.3142	0.76367	0.15681
O2	O	0.47233	0.98444	0.66245
O2	O	0.46928	0.02913	0.64256
O2	O	0.35025	0.95609	0.7205
O3	O	0.30613	0.97947	0.74084
O3	O	0.35714	0.87469	0.85129
O2	O	0.32072	0.91088	0.86575
O2	O	0.29277	0.06394	0.81256
O2	O	0.31647	0.93066	0.90004
O3	O	0.30544	0.11596	0.73738
O2	O	0.26918	0.10331	0.77405
O2	O	0.30348	0.04849	0.67264
O3	O	0.27817	0.02832	0.71469
C3	C	0.18389	0.16896	0.05969
C4	C	0.12295	0.89277	0.26848
C3	C	0.13401	0.91387	0.24996
C3	C	0.30913	0.76153	0.2055
C1	C	0.29872	0.78899	0.16073
C2	C	0.29627	0.78645	0.18829
C3	C	0.28304	0.80986	0.19589
C3	C	0.45299	0.9885	0.62644
C1	C	0.47348	0.00655	0.63809
C2	C	0.4509	0.01122	0.62972
C4	C	0.42595	0.03386	0.63034
C3	C	0.3241	0.91632	0.78715
C1	C	0.32553	0.95348	0.74134
C2	C	0.3303	0.94018	0.76819
C4	C	0.32767	0.90409	0.81265
C1	C	0.34503	0.90324	0.84477
C2	C	0.33876	0.91563	0.81883
C3	C	0.33976	0.95233	0.77506
C3	C	0.34384	0.94014	0.80017
C3	C	0.31493	0.0091	0.83593
C3	C	0.3209	0.98117	0.85326
C3	C	0.2807	0.0916	0.72684
C1	C	0.29648	0.09377	0.75745
C2	C	0.2978	0.07867	0.74255
C4	C	0.28193	0.0785	0.71209
C1	C	0.30219	0.03458	0.69996
C2	C	0.30149	0.05185	0.71228
C3	C	0.3172	0.05255	0.74259
C3	C	0.31913	0.03939	0.72746
S1	S	0.1001	0.89592	0.30234
H1	H	0.13018	0.9292	0.25721
H1	H	0.33212	0.01075	0.81598
H1	H	0.32519	0.96608	0.84534
H1	H	0.17823	0.15329	0.06168
H1	H	0.31852	0.74295	0.20064
H1	H	0.3309	0.04242	0.75423
H1	H	0.33407	0.01903	0.72811
H1	H	0.26627	0.11215	0.7261
S1	S	0.25826	0.09777	0.69289
H1	H	0.47236	0.97168	0.62445
S1	S	0.4213	0.06738	0.62787
H1	H	0.34374	0.97139	0.76106
H1	H	0.35031	0.95021	0.80542
H1	H	0.31616	0.90737	0.78227
S1	S	0.31716	0.87412	0.83659
H1	H	0.27225	0.82913	0.1835
Cr1	Cr	0.0333	0.49513	0.33192
Cr2	Cr	0.81308	0.09615	0.27551
O2	O	0.21485	0.16528	0.11462
O3	O	0.84809	0.09311	0.27238
O2	O	0.95017	0.15097	0.17656
O2	O	0.79301	0.33065	0.24238
O2	O	0.76937	0.30004	0.27137
O2	O	0.97607	0.49333	0.38697
O2	O	0.02209	0.47838	0.37128
O2	O	0.96007	0.34193	0.47482
O3	O	0.98488	0.29941	0.47053
O3	O	0.87608	0.38162	0.41445
O2	O	0.88635	0.33855	0.4163
O3	O	0.06325	0.28992	0.33045
O2	O	0.92562	0.33914	0.3682
O2	O	0.11687	0.30856	0.33191
O3	O	0.10586	0.26974	0.3479
O2	O	0.05441	0.29875	0.46994
O3	O	0.03546	0.27351	0.47243
F1	F	0.83142	0.07709	0.25111
C3	C	0.1986	0.20888	0.05539
C3	C	0.89329	0.10933	0.24067
C4	C	0.91641	0.11754	0.2228
C3	C	0.77876	0.29046	0.22794
C1	C	0.79427	0.30364	0.25093
C2	C	0.79768	0.29895	0.22652
C3	C	0.81838	0.30513	0.20144
C4	C	0.97852	0.44493	0.43482
C1	C	-0.0009	0.47078	0.38206
C2	C	0.0001	0.44647	0.40882
C3	C	0.02485	0.42405	0.40755
C4	C	0.91606	0.3251	0.47309
C1	C	0.95845	0.31753	0.47926
C2	C	0.94334	0.32469	0.46166
C3	C	0.90128	0.33607	0.45583
C1	C	0.89717	0.3578	0.40956
C2	C	0.91357	0.34571	0.42735
C3	C	0.95574	0.33396	0.43292
C3	C	0.94102	0.34409	0.41582
C3	C	0.00802	0.30418	0.34595
C3	C	0.97954	0.31397	0.35344
C4	C	0.09702	0.28342	0.39386
C1	C	0.09575	0.2972	0.34628
C2	C	0.08261	0.29846	0.37489
C3	C	0.08307	0.28457	0.42055
C1	C	0.03944	0.29856	0.45835
C2	C	0.05532	0.3007	0.4287
C3	C	0.05509	0.31534	0.38288
C3	C	0.04165	0.31663	0.4095
H1	H	0.89371	0.0904	0.24206
S1	S	0.94475	0.09568	0.20266
H1	H	0.0167	0.29746	0.3613
H1	H	0.968	0.31216	0.37482
H1	H	0.20424	0.22434	0.05382
H1	H	0.76357	0.28394	0.2474
H1	H	0.04389	0.32732	0.36854
H1	H	0.02035	0.32948	0.41539
S1	S	0.13318	0.26193	0.38535
H1	H	0.09377	0.27255	0.43521
S1	S	0.9454	0.47216	0.44144
H1	H	0.0419	0.42515	0.38846
H1	H	0.97659	0.33406	0.42374
H1	H	0.95064	0.35155	0.39377
S1	S	0.89871	0.31304	0.50965
H1	H	0.87995	0.33758	0.46458
H1	H	0.83376	0.31096	0.19982
Cr1	Cr	0.4977	0.64649	0.32191
Cr1	Cr	0.09201	0.32726	0.26794
O2	O	0.16119	0.01914	0.12769
O2	O	0.09628	0.3003	0.25637
O3	O	0.15864	0.22852	0.16681
O3	O	0.33394	0.13188	0.24033
O2	O	0.31218	0.1633	0.26292
O3	O	0.47145	0.66338	0.37765
O2	O	0.46752	0.64407	0.35582
O2	O	0.34803	0.71605	0.4674
O2	O	0.30277	0.73779	0.47172
O2	O	0.36258	0.84381	0.42089
O2	O	0.32787	0.85801	0.40546
O3	O	0.28273	0.8284	0.33047
O2	O	0.32201	0.89582	0.35748
O2	O	0.27662	0.75169	0.348
O3	O	0.26334	0.78714	0.3607
O3	O	0.29923	0.66905	0.47461
O2	O	0.27444	0.71012	0.47974
C3	C	0.1658	0.06473	0.08068
C3	C	0.12823	0.2722	0.22026
C4	C	0.13885	0.2587	0.20173
C4	C	0.3331	0.18577	0.20111
C1	C	0.31039	0.15399	0.24676
C2	C	0.3095	0.17785	0.22045
C3	C	0.28375	0.19523	0.21708
C3	C	0.44939	0.62721	0.42945
C1	C	0.47252	0.63921	0.37843
C2	C	0.44976	0.63068	0.40435
C3	C	0.42689	0.6301	0.4036
C3	C	0.34821	0.76692	0.46516
C1	C	0.32441	0.73663	0.47591
C2	C	0.33078	0.76294	0.45936
C4	C	0.35664	0.79003	0.44937
C1	C	0.35255	0.83727	0.40913
C2	C	0.34708	0.81013	0.42687
C3	C	0.3225	0.78193	0.43655
C3	C	0.33068	0.805	0.42053
C4	C	0.30997	0.88122	0.29707
C3	C	0.31932	0.89404	0.3034
C4	C	0.26858	0.7305	0.40641
C1	C	0.28424	0.76298	0.3572
C2	C	0.28813	0.7433	0.38433
C3	C	0.27348	0.71321	0.43126
C1	C	0.29823	0.69611	0.46333
C2	C	0.29663	0.70934	0.43508
C3	C	0.312	0.73809	0.38793
C3	C	0.31609	0.72151	0.41322
H1	H	0.12236	0.2943	0.21264
S1	S	0.14082	0.28112	0.1664
S1	S	0.29581	0.90132	0.26944
H1	H	0.31806	0.91527	0.29182
H1	H	0.1487	0.06776	0.09913
S1	S	0.36731	0.16688	0.20428
H1	H	0.327	0.74779	0.37141
H1	H	0.33392	0.71894	0.41602
S1	S	0.2367	0.73529	0.40473
H1	H	0.25846	0.70376	0.44829
H1	H	0.46696	0.62694	0.43078
H1	H	0.4272	0.63114	0.38486
H1	H	0.30998	0.77887	0.43077
H1	H	0.32357	0.81931	0.40324
H1	H	0.35579	0.7514	0.4819
S1	S	0.38084	0.79077	0.45886
H1	H	0.26541	0.19006	0.23208
Cr1	Cr	0.03326	0.32502	0.64651
Cr2	Cr	0.81597	0.27897	0.31849
O3	O	0.19199	0.12855	0.01241
O3	O	0.85024	0.27526	0.28836
O3	O	0.948	0.17984	0.22574
O2	O	0.80406	0.2414	0.12948
O2	O	0.78043	0.26298	0.16181
O3	O	0.986	0.37744	0.66925
O2	O	0.03116	0.35534	0.65106
O2	O	0.95924	0.47497	0.70849
O2	O	0.98099	0.47395	0.73102
O2	O	0.86765	0.42406	0.83923
O3	O	0.90521	0.41046	0.85111
O2	O	0.05407	0.32943	0.82497
O3	O	0.92604	0.36239	0.88575
O2	O	0.12016	0.34698	0.7473
O2	O	0.08125	0.36073	0.78073
O3	O	0.05297	0.47686	0.66501
O2	O	0.0299	0.47959	0.70722
F1	F	0.83604	0.25402	0.34202
C4	C	0.21006	0.05868	0.03228
C3	C	0.87651	0.23351	0.26151
C3	C	0.89938	0.21608	0.24727
C3	C	0.79114	0.20319	0.18055
C1	C	0.80533	0.24486	0.1502
C2	C	0.80727	0.21808	0.17343
C3	C	0.81979	0.21099	0.19159
C3	C	0.99319	0.42847	0.62531
C1	C	0.00838	0.37758	0.64511
C2	C	0.01327	0.40407	0.63383
C3	C	0.03657	0.40506	0.63294
C3	C	0.91633	0.47662	0.77468
C1	C	0.95537	0.48114	0.72989
C2	C	0.93946	0.46423	0.756
C4	C	0.90132	0.46106	0.79934
C1	C	0.89642	0.41351	0.83174
C2	C	0.90915	0.43255	0.80478
C3	C	0.94729	0.43603	0.76167
C3	C	0.93202	0.42052	0.7856
C3	C	0.01052	0.31492	0.87606
C3	C	0.97973	0.33247	0.88168
C4	C	0.09086	0.40575	0.72441
C1	C	0.09164	0.35637	0.75613
C2	C	0.08137	0.38353	0.7355
C3	C	0.07778	0.4314	0.7082
C1	C	0.03758	0.46455	0.69143
C2	C	0.05469	0.43585	0.70382
C3	C	0.05917	0.38786	0.72969
C3	C	0.04563	0.41388	0.7144
H1	H	0.86448	0.22464	0.28239
H1	H	0.90376	0.19424	0.25798
H1	H	0.02188	0.32576	0.8749
H1	H	0.97059	0.33227	0.90317
S1	S	0.23905	0.05416	0.00141
H1	H	0.78059	0.20899	0.16715
H1	H	0.05132	0.37139	0.73833
H1	H	0.02758	0.41707	0.71152
S1	S	0.11865	0.40312	0.73141
H1	H	0.08457	0.44851	0.70022
H1	H	0.97637	0.4276	0.62369
H1	H	0.05361	0.38641	0.63698
H1	H	0.96523	0.42605	0.74747
H1	H	0.93868	0.39877	0.78965
H1	H	0.9104	0.49838	0.77022
S1	S	0.87291	0.47855	0.82345
H1	H	0.83164	0.22248	0.18711
Cr2	Cr	0.64815	0.49861	0.03664
Cr1	Cr	0.32781	0.09824	0.80453
O3	O	0.00349	0.17046	0.21175
O2	O	0.30121	0.10152	0.83959
O3	O	0.2134	0.135	0.95656
O2	O	0.12708	0.33226	0.79467
O2	O	0.15961	0.30534	0.76725
O2	O	0.66376	0.47415	0.98929
O3	O	0.64702	0.46811	0.03479
O2	O	0.71235	0.35132	0.97072
O2	O	0.73391	0.30751	0.99396
O2	O	0.83809	0.36624	0.87152
O2	O	0.85434	0.32978	0.9061
O2	O	0.82903	0.28788	0.05558
O2	O	0.88997	0.32492	0.92381
O2	O	0.75501	0.27951	0.12726
O2	O	0.78538	0.27244	0.08695
O3	O	0.66485	0.30542	0.06359
O2	O	0.70622	0.27991	0.04363
F1	F	0.61841	0.49634	0.06889
C3	C	0.05401	0.16959	0.20774
C4	C	0.26729	0.12948	0.87961
C3	C	0.24885	0.13898	0.90203
C3	C	0.17494	0.33254	0.78969
C1	C	0.14886	0.3075	0.79336
C2	C	0.17187	0.30761	0.79729
C3	C	0.19212	0.28294	0.80572
C3	C	0.62597	0.45386	0.99665
C1	C	0.6405	0.47422	0.01267
C2	C	0.63107	0.45248	0.01771
C3	C	0.62983	0.42963	0.04167
C3	C	0.77422	0.32865	0.92499
C1	C	0.73304	0.3267	0.96799
C2	C	0.75967	0.33223	0.95065
C4	C	0.79809	0.33593	0.90745
C1	C	0.83335	0.35444	0.89985
C2	C	0.80684	0.34807	0.91555
C3	C	0.76908	0.34299	0.95901
C3	C	0.79238	0.3507	0.94164
C3	C	0.83616	0.32711	0.00317
C3	C	0.84861	0.33537	0.97486
C4	C	0.72629	0.27598	0.10129
C1	C	0.76148	0.29062	0.09896
C2	C	0.73873	0.29579	0.09075
C3	C	0.70883	0.28042	0.08921
C1	C	0.69205	0.30425	0.04913
C2	C	0.70451	0.30347	0.06608
C3	C	0.73241	0.3199	0.06902
C3	C	0.71575	0.32355	0.05654
S1	S	0.30374	0.11905	0.87371
H1	H	0.25688	0.13962	0.9143
H1	H	0.81529	0.32699	0.0118
H1	H	0.83664	0.34283	0.9622
H1	H	0.04578	0.15359	0.22431
H1	H	0.16	0.35179	0.78226
H1	H	0.74189	0.33514	0.06053
H1	H	0.71276	0.34138	0.03859
S1	S	0.73313	0.24385	0.12912
H1	H	0.70009	0.26491	0.09658
H1	H	0.6252	0.47225	0.97878
H1	H	0.63148	0.42913	0.05909
H1	H	0.75824	0.34557	0.97896
H1	H	0.79977	0.3578	0.94908
H1	H	0.76689	0.32016	0.9187
S1	S	0.81695	0.32833	0.87553
H1	H	0.19043	0.26352	0.81119
Cr1	Cr	0.32241	0.03093	0.49964
Cr1	Cr	0.26729	0.81253	0.09652
O3	O	0.12546	0.21121	0.1645
O2	O	0.25717	0.84681	0.10012
O2	O	0.19231	0.96457	0.13122
O3	O	0.23698	0.80387	0.32596
O2	O	0.26229	0.7708	0.30558
O2	O	0.37682	0.9808	0.4774
O2	O	0.35587	0.02642	0.46953
O3	O	0.47671	0.95574	0.35986
O2	O	0.47307	0.97961	0.31808
O2	O	0.4223	0.87034	0.36523
O3	O	0.4073	0.90927	0.33147
O3	O	0.33452	0.05962	0.29119
O3	O	0.35981	0.92989	0.32294
O2	O	0.34928	0.12449	0.28718
O3	O	0.36378	0.09054	0.27257
O2	O	0.47274	0.05116	0.31429
O2	O	0.47428	0.03011	0.2911
C4	C	0.07651	0.21054	0.16476
C3	C	0.22447	0.88474	0.12633
C4	C	0.2092	0.90899	0.13291
C3	C	0.22921	0.79064	0.2778
C1	C	0.24756	0.79883	0.30138
C2	C	0.22439	0.80515	0.29314
C3	C	0.19734	0.82074	0.30453
C3	C	0.42863	0.98527	0.45911
C1	C	0.37755	0.00415	0.47672
C2	C	0.4049	0.00802	0.4558
C4	C	0.40818	0.03182	0.43241
C3	C	0.45914	0.91758	0.3664
C1	C	0.48277	0.95339	0.33536
C2	C	0.46811	0.93603	0.34032
C4	C	0.4428	0.90374	0.37185
C1	C	0.41277	0.89889	0.35587
C2	C	0.43424	0.90923	0.35072
C3	C	0.46235	0.93896	0.3189
C3	C	0.44549	0.92607	0.32401
C3	C	0.3338	0.00787	0.32987
C3	C	0.34285	0.97898	0.33639
C3	C	0.39128	0.09428	0.30952
C1	C	0.35604	0.09638	0.29553
C2	C	0.38	0.08098	0.30608
C4	C	0.41572	0.08011	0.31586
C1	C	0.46022	0.03611	0.31547
C2	C	0.43013	0.05205	0.3173
C3	C	0.39206	0.05261	0.31162
C3	C	0.4168	0.03843	0.31697
H1	H	0.21529	0.87834	0.11985
S1	S	0.17504	0.92569	0.12924
H1	H	0.34398	0.01548	0.33401
H1	H	0.36517	0.97156	0.32481
S1	S	0.08864	0.23785	0.13514
H1	H	0.25011	0.7792	0.26819
H1	H	0.3832	0.04165	0.31012
H1	H	0.42644	0.01689	0.31916
H1	H	0.38128	0.11593	0.30695
S1	S	0.42592	0.09947	0.32275
H1	H	0.42691	0.96762	0.47767
S1	S	0.38129	0.06528	0.42739
H1	H	0.46987	0.9523	0.2983
H1	H	0.44085	0.93016	0.30675
H1	H	0.46456	0.91417	0.38289
S1	S	0.43389	0.87992	0.40668
H1	H	0.19282	0.83301	0.31571
Cr1	Cr	0.32087	0.50119	0.64521
Cr1	Cr	0.27281	0.10177	0.32057
O2	O	0.12982	0.16262	0.01395
O2	O	0.26781	0.09807	0.29345
O2	O	0.18338	0.15481	0.2195
O2	O	0.24287	0.33166	0.12581
O3	O	0.2634	0.30296	0.15948
O3	O	0.3746	0.47094	0.66594
O2	O	0.35696	0.47247	0.63939
O2	O	0.4659	0.34826	0.71533
O2	O	0.46261	0.30597	0.73542
O2	O	0.42104	0.36707	0.83556
O3	O	0.40661	0.33008	0.8559
O2	O	0.33072	0.29103	0.8212
O3	O	0.35773	0.32839	0.89419
O2	O	0.33434	0.28747	0.74836
O2	O	0.35484	0.2772	0.77689
O3	O	0.46673	0.30758	0.66327
O2	O	0.46691	0.28165	0.70606
C4	C	0.05892	0.1921	0.03698
C3	C	0.23267	0.13216	0.26155
C3	C	0.21702	0.14115	0.24553
C4	C	0.20365	0.33153	0.17986
C1	C	0.24615	0.30688	0.14735
C2	C	0.21826	0.30942	0.16932
C3	C	0.20763	0.28811	0.18164
C3	C	0.42897	0.45211	0.63321
C1	C	0.37867	0.47555	0.63941
C2	C	0.40625	0.45463	0.62964
C3	C	0.4094	0.43548	0.62032
C3	C	0.46997	0.3263	0.77655
C1	C	0.47139	0.32334	0.73576
C2	C	0.45586	0.32851	0.76234
C4	C	0.45551	0.33409	0.80002
C1	C	0.40847	0.35409	0.83365
C2	C	0.4262	0.34527	0.80868
C3	C	0.42714	0.33755	0.77206
C3	C	0.41262	0.34528	0.79528
C4	C	0.31131	0.31035	0.87402
C3	C	0.32088	0.31996	0.88367
C4	C	0.39188	0.2869	0.71543
C1	C	0.34622	0.29729	0.75491
C2	C	0.37128	0.30399	0.73161
C3	C	0.41755	0.29048	0.69956
C1	C	0.45362	0.30702	0.69035
C2	C	0.42399	0.30946	0.70041
C3	C	0.37711	0.32479	0.73024
C3	C	0.40327	0.32741	0.71494
H1	H	0.22232	0.12963	0.28319
H1	H	0.19507	0.14548	0.25591
S1	S	0.2935	0.28571	0.89857
H1	H	0.31759	0.3125	0.90535
S1	S	0.05392	0.1986	0.00647
S1	S	0.21538	0.36011	0.16692
H1	H	0.36202	0.33766	0.74288
H1	H	0.40785	0.34216	0.71599
S1	S	0.38845	0.25787	0.71629
H1	H	0.43338	0.27687	0.68816
H1	H	0.42776	0.46732	0.63895
H1	H	0.3931	0.43836	0.61495
H1	H	0.41599	0.33868	0.76158
H1	H	0.3907	0.35056	0.80318
H1	H	0.49227	0.3188	0.76908
S1	S	0.47571	0.32811	0.8185
H1	H	0.21826	0.27117	0.17412
Cr2	Cr	0.65135	0.03741	0.3182
Cr1	Cr	0.32034	0.81026	0.2727
O2	O	0.00948	0.20812	0.11949
O2	O	0.29501	0.84664	0.26359
O3	O	0.21808	0.9659	0.18606
O3	O	0.12132	0.81924	0.24379
O2	O	0.14536	0.77516	0.26242
O2	O	0.67401	0.98726	0.37013
O3	O	0.65339	0.03299	0.35134
O3	O	0.71418	0.96061	0.46993
O2	O	0.73593	0.98608	0.46393
O2	O	0.83051	0.88899	0.39082
O3	O	0.85578	0.89219	0.40745
O2	O	0.82522	0.06243	0.33621
O3	O	0.87301	0.93001	0.361
O2	O	0.74685	0.13221	0.34188
O2	O	0.77769	0.09414	0.36096
O2	O	0.6684	0.05595	0.47028
O2	O	0.71206	0.03539	0.4686
F1	F	0.62037	0.0681	0.32217
C3	C	0.06549	0.18209	0.08483
C3	C	0.26833	0.88852	0.22712
C4	C	0.25407	0.91268	0.21042
C3	C	0.17404	0.79254	0.20613
C1	C	0.14523	0.8021	0.25055
C2	C	0.16958	0.80378	0.22422
C3	C	0.18895	0.81437	0.21834
C3	C	0.63511	0.9904	0.42403
C1	C	0.64955	0.00928	0.37282
C2	C	0.64025	0.01232	0.4001
C3	C	0.63674	0.03623	0.40231
C4	C	0.76887	0.91783	0.45469
C1	C	0.73707	0.95926	0.47194
C2	C	0.76275	0.94506	0.45226
C3	C	0.79264	0.90572	0.43623
C1	C	0.83571	0.9066	0.39516
C2	C	0.80997	0.92034	0.4142
C3	C	0.78093	0.95934	0.4301
C3	C	0.80401	0.94721	0.41119
C3	C	0.87707	0.01638	0.31748
C3	C	0.88803	0.9853	0.33233
C4	C	0.71358	0.10392	0.39706
C1	C	0.75582	0.10359	0.3525
C2	C	0.73395	0.09187	0.3765
C3	C	0.69852	0.08841	0.42158
C1	C	0.69455	0.04207	0.45582
C2	C	0.70419	0.06075	0.42688
C3	C	0.73784	0.06487	0.3811
C3	C	0.72329	0.04939	0.40606
H1	H	0.28961	0.88467	0.22272
S1	S	0.27423	0.93441	0.18209
H1	H	0.88005	0.02752	0.32553
H1	H	0.91089	0.97828	0.32512
H1	H	0.06819	0.17834	0.10315
H1	H	0.15913	0.78429	0.21071
H1	H	0.75395	0.05494	0.36613
H1	H	0.72832	0.02798	0.40978
S1	S	0.70761	0.13793	0.3946
H1	H	0.68358	0.09746	0.43734
H1	H	0.63598	0.97251	0.42279
H1	H	0.63834	0.05435	0.38433
H1	H	0.7774	0.98016	0.42692
H1	H	0.81748	0.95867	0.39444
S1	S	0.74661	0.89739	0.47896
H1	H	0.79735	0.88474	0.43875
H1	H	0.18627	0.82259	0.23235
Cr1	Cr	0.0294	0.65136	0.49993
Cr2	Cr	0.81549	0.32248	0.09435
O3	O	0.19444	0.02117	0.15835
O3	O	0.85216	0.29631	0.08872
O2	O	0.95388	0.22759	0.14666
O2	O	0.79257	0.1384	0.33081
O2	O	0.77206	0.1687	0.29779
O3	O	0.98812	0.66659	0.46864
O2	O	0.03288	0.64764	0.46821
O2	O	0.97313	0.72162	0.33555
O2	O	0.99385	0.74055	0.29004
O2	O	0.89266	0.83134	0.36506
O2	O	0.90021	0.86339	0.32149
O3	O	0.05576	0.82802	0.30537
O2	O	0.93506	0.87877	0.3221
O2	O	0.10297	0.75659	0.30524
O3	O	0.08016	0.79537	0.278
O3	O	0.06687	0.67426	0.28951
O2	O	0.04391	0.71324	0.26334
F1	F	0.83068	0.34948	0.07929
C3	C	0.21484	0.03863	0.18985
C4	C	0.90366	0.25028	0.09956
C3	C	0.92535	0.23519	0.1101
C3	C	0.78907	0.18498	0.3313
C1	C	0.79549	0.15834	0.30482
C2	C	0.79704	0.18228	0.306
C3	C	0.80395	0.20357	0.28184
C3	C	1.01065	0.62313	0.44076
C1	C	0.01166	0.64318	0.46896
C2	C	0.02082	0.63874	0.44251
C3	C	0.035	0.65532	0.41813
C4	C	0.92765	0.78484	0.31454
C1	C	0.96854	0.74079	0.3111
C2	C	0.95471	0.76848	0.31478
C3	C	0.91447	0.80881	0.32141
C1	C	0.9125	0.83979	0.33989
C2	C	0.92803	0.81683	0.32828
C3	C	0.96844	0.77723	0.32077
C3	C	0.95528	0.80127	0.32726
C3	C	0.01502	0.88735	0.30451
C3	C	0.98737	0.89833	0.30636
C4	C	0.10479	0.72464	0.27838
C1	C	0.09943	0.76898	0.27996
C2	C	0.08856	0.75179	0.27873
C3	C	0.09284	0.70796	0.28098
C1	C	0.05062	0.70164	0.28673
C2	C	0.06495	0.71816	0.28369
C3	C	0.061	0.76189	0.28037
C3	C	0.04959	0.74539	0.28261
S1	S	0.91303	0.26206	0.06244
H1	H	0.94632	0.23075	0.09611
H1	H	0.02903	0.89816	0.2877
H1	H	0.97954	0.919	0.2933
H1	H	0.2315	0.01923	0.19251
H1	H	0.78256	0.16946	0.35038
H1	H	0.04763	0.78249	0.28061
H1	H	0.02844	0.75412	0.28373
S1	S	0.14095	0.71054	0.27483
H1	H	0.10524	0.68713	0.28104
S1	S	0.99152	0.60187	0.47123
H1	H	0.04238	0.66792	0.41911
H1	H	0.98904	0.76476	0.32158
H1	H	0.96589	0.80696	0.33285
S1	S	0.90866	0.77453	0.30752
H1	H	0.89322	0.82067	0.3225
H1	H	0.80941	0.20255	0.26217
Cr1	Cr	0.50084	0.31808	0.03231
Cr2	Cr	0.09622	0.27063	0.80913
O2	O	0.17481	0.12084	0.20798
O3	O	0.09388	0.26517	0.84449
O2	O	0.13186	0.19374	0.95958
O2	O	0.32407	0.24636	0.79719
O2	O	0.29103	0.26944	0.77605
O3	O	0.46833	0.37588	0.99309
O2	O	0.46951	0.35124	0.03593
O2	O	0.36365	0.46665	0.963
O3	O	0.3202	0.46598	0.98441
O2	O	0.37184	0.42614	0.86392
O2	O	0.33404	0.41909	0.89827
O2	O	0.29334	0.33406	0.05343
O2	O	0.329	0.37056	0.92979
O3	O	0.28378	0.34453	0.12373
O2	O	0.27467	0.36134	0.08529
O2	O	0.31186	0.47067	0.0554
O3	O	0.28896	0.4729	0.03313
F1	F	0.08422	0.24105	0.8255
C3	C	0.17211	0.08888	0.1837
C3	C	0.11852	0.2305	0.88354
C4	C	0.12692	0.21395	0.90669
C3	C	0.32161	0.2135	0.77875
C1	C	0.29788	0.24988	0.79972
C2	C	0.30025	0.22351	0.79999
C3	C	0.27989	0.21119	0.81777
C3	C	0.45844	0.42451	0.99694
C1	C	0.47334	0.3745	0.01394
C2	C	0.45496	0.40103	0.01983
C4	C	0.43154	0.40417	0.04353
C3	C	0.36204	0.46576	0.91369
C1	C	0.34004	0.473	0.95893
C2	C	0.34728	0.45712	0.94176
C4	C	0.3687	0.45219	0.89652
C1	C	0.36097	0.41528	0.89218
C2	C	0.36038	0.42908	0.90799
C3	C	0.34098	0.43318	0.95327
C3	C	0.34762	0.41934	0.93661
C3	C	0.29637	0.32441	0.01004
C3	C	0.30489	0.3395	0.97908
C3	C	0.28759	0.39762	0.09799
C1	C	0.29484	0.35353	0.09525
C2	C	0.30269	0.37829	0.08445
C4	C	0.2916	0.42293	0.08586
C1	C	0.31211	0.45791	0.04114
C2	C	0.31106	0.42935	0.05899
C3	C	0.32297	0.38398	0.05877
C3	C	0.32713	0.40923	0.0462
H1	H	0.10687	0.22416	0.87997
S1	S	0.11752	0.18283	0.92657
H1	H	0.27723	0.33855	0.02021
H1	H	0.29149	0.34013	0.97082
H1	H	0.15569	0.10851	0.18117
H1	H	0.33647	0.22392	0.76409
H1	H	0.33472	0.36936	0.04789
H1	H	0.34193	0.41368	0.02568
H1	H	0.27184	0.39338	0.11786
S1	S	0.27043	0.44526	0.10673
H1	H	0.47718	0.42258	0.97939
S1	S	0.42984	0.37987	0.07819
H1	H	0.33065	0.42523	0.9751
H1	H	0.34161	0.40139	0.94605
H1	H	0.36812	0.48343	0.90514
S1	S	0.38774	0.4657	0.86042
H1	H	0.26248	0.21938	0.83346
Cr1	Cr	0.35002	0.68077	0.9679
Cr2	Cr	0.67735	0.72992	0.18658
O3	O	0.98627	0.87475	0.80775
O3	O	0.706	0.73463	0.15167
O2	O	0.77281	0.82168	0.03668
O2	O	0.87071	0.75787	0.20129
O3	O	0.83974	0.73398	0.22811
O2	O	0.33376	0.62417	0.01318
O2	O	0.35151	0.64747	0.96907
O2	O	0.29169	0.52831	0.03353
O3	O	0.27427	0.52904	0.0073
O3	O	0.16249	0.56518	0.12735
O2	O	0.14542	0.57964	0.09356
O2	O	0.18074	0.65779	0.94146
O2	O	0.10985	0.62874	0.07678
O3	O	0.26034	0.656	0.87412
O2	O	0.23046	0.63494	0.91111
O2	O	0.34658	0.5244	0.94004
O3	O	0.30387	0.52209	0.95892
F1	F	0.65211	0.75518	0.16847
C4	C	0.96239	0.93471	0.81337
C3	C	0.72826	0.77512	0.11352
C4	C	0.74104	0.79304	0.0894
C4	C	0.81329	0.79193	0.22065
C1	C	0.84978	0.75246	0.20252
C2	C	0.82565	0.77876	0.20096
C3	C	0.81326	0.78901	0.1815
C3	C	0.37468	0.5742	0.00769
C1	C	0.35791	0.62489	0.9909
C2	C	0.37019	0.59824	0.98532
C4	C	0.373	0.59593	0.96145
C3	C	0.22648	0.52159	0.07021
C1	C	0.27249	0.52146	0.03402
C2	C	0.24438	0.53621	0.04974
C4	C	0.20092	0.53432	0.0869
C1	C	0.16635	0.57779	0.09923
C2	C	0.19339	0.56231	0.08289
C3	C	0.23629	0.56417	0.04513
C3	C	0.21105	0.57703	0.06173
C3	C	0.16791	0.65012	0.99667
C3	C	0.15501	0.64117	0.02564
C3	C	0.29003	0.59947	0.89822
C1	C	0.25169	0.64404	0.90263
C2	C	0.27468	0.61906	0.91153
C4	C	0.3067	0.57325	0.90998
C1	C	0.31901	0.53699	0.95331
C2	C	0.30767	0.56622	0.936
C3	C	0.27742	0.61273	0.93616
C3	C	0.29378	0.58656	0.94826
H1	H	0.70673	0.77912	0.11868
S1	S	0.71919	0.82104	0.06907
H1	H	0.1892	0.63814	0.98831
H1	H	0.15491	0.62012	0.03273
S1	S	0.99629	0.93794	0.7968
S1	S	0.82444	0.77884	0.24957
H1	H	0.26537	0.62735	0.94699
H1	H	0.29413	0.58159	0.96819
H1	H	0.28791	0.60422	0.87924
S1	S	0.32554	0.54922	0.89126
H1	H	0.37392	0.57545	0.02552
S1	S	0.37397	0.62361	0.92868
H1	H	0.24979	0.57585	0.02908
H1	H	0.20522	0.59861	0.05799
H1	H	0.23263	0.50014	0.0733
S1	S	0.1791	0.51365	0.11359
H1	H	0.82235	0.7793	0.16634
Cr2	Cr	0.67952	0.35172	0.50389
Cr1	Cr	0.73107	0.67737	0.9086
O2	O	0.87642	0.98535	0.84822
O2	O	0.73286	0.70457	0.91496
O2	O	0.82385	0.77486	0.84768
O3	O	0.75888	0.87395	0.68027
O2	O	0.7366	0.8545	0.67741
O2	O	0.62256	0.33548	0.53086
O3	O	0.64486	0.35556	0.53351
O3	O	0.52471	0.28596	0.64744
O2	O	0.52328	0.26262	0.69156
O2	O	0.58996	0.17159	0.61699
O2	O	0.58001	0.1442	0.662
O3	O	0.6686	0.18277	0.70871
O2	O	0.62799	0.12864	0.66738
O2	O	0.65776	0.25567	0.69946
O3	O	0.644	0.21966	0.73481
O2	O	0.5237	0.32587	0.70139
O2	O	0.51875	0.28454	0.72288
F1	F	0.67999	0.38235	0.5041
C3	C	0.90957	0.93084	0.83875
C4	C	0.76327	0.7386	0.89764
C3	C	0.78053	0.75409	0.88472
C3	C	0.79432	0.82324	0.66645
C1	C	0.75007	0.85161	0.69247
C2	C	0.77481	0.82616	0.69175
C3	C	0.77836	0.80498	0.71602
C4	C	0.57062	0.38335	0.55296
C1	C	0.62146	0.35963	0.5301
C2	C	0.59715	0.36582	0.55467
C3	C	0.59998	0.3492	0.58067
C4	C	0.52528	0.22262	0.66319
C1	C	0.5174	0.26458	0.67076
C2	C	0.53579	0.23852	0.66399
C3	C	0.54324	0.19878	0.65643
C1	C	0.59041	0.16542	0.64257
C2	C	0.57159	0.19025	0.6509
C3	C	0.56437	0.22994	0.65801
C3	C	0.58211	0.20582	0.65181
C3	C	0.67072	0.16347	0.67071
C3	C	0.6623	0.15126	0.66306
C4	C	0.59611	0.27005	0.72363
C1	C	0.64538	0.23692	0.70797
C2	C	0.61643	0.25337	0.7069
C3	C	0.56993	0.28535	0.72088
C1	C	0.53496	0.29952	0.70009
C2	C	0.5638	0.28541	0.70112
C3	C	0.60988	0.25326	0.6875
C3	C	0.58405	0.26956	0.68424
S1	S	0.76689	0.7108	0.92958
H1	H	0.79555	0.74844	0.89337
H1	H	0.66954	0.18473	0.65939
H1	H	0.65481	0.1633	0.64584
H1	H	0.88927	0.92901	0.84906
H1	H	0.79123	0.83953	0.64769
H1	H	0.62486	0.24054	0.67474
H1	H	0.5796	0.26934	0.66896
S1	S	0.60233	0.27268	0.74895
H1	H	0.55412	0.29727	0.73424
S1	S	0.56496	0.40518	0.52039
H1	H	0.61991	0.33502	0.58267
H1	H	0.57298	0.24202	0.65809
H1	H	0.60401	0.19964	0.64716
S1	S	0.48909	0.23256	0.66975
H1	H	0.53523	0.18686	0.65522
H1	H	0.76325	0.80676	0.73564
Cr1	Cr	0.50205	0.96399	0.67697
Cr1	Cr	0.90514	0.18723	0.73828
O2	O	0.83137	0.79024	0.87963
O2	O	0.89834	0.15292	0.75334
O2	O	0.85823	0.04258	0.83229
O3	O	0.67755	0.18768	0.76477
O2	O	0.67652	0.23182	0.74199
O2	O	0.52953	0.00916	0.62018
O2	O	0.53236	0.96497	0.6428
O2	O	0.6537	0.03393	0.52758
O2	O	0.69876	0.0121	0.5246
O2	O	0.62153	0.11189	0.59065
O3	O	0.66509	0.10505	0.58497
O3	O	0.7016	0.9443	0.67149
O3	O	0.66479	0.07051	0.63602
O2	O	0.69226	0.88977	0.6622
O3	O	0.72768	0.90511	0.64734
O3	O	0.69963	0.94146	0.52786
O2	O	0.72598	0.96305	0.51949
C3	C	0.81962	0.78661	0.93346
C3	C	0.86236	0.12189	0.78266
C3	C	0.85347	0.09914	0.79959
C3	C	0.70949	0.22245	0.77061
C1	C	0.69189	0.20525	0.75428
C2	C	0.69689	0.20477	0.77687
C3	C	0.68836	0.18793	0.80412
C3	C	0.54949	0.00438	0.56847
C1	C	0.52745	0.98724	0.61988
C2	C	0.54947	0.9819	0.59335
C4	C	0.57343	0.95801	0.59294
C4	C	0.67308	0.07819	0.52785
C1	C	0.67823	0.03767	0.51973
C2	C	0.67332	0.05115	0.53811
C3	C	0.66506	0.09104	0.54606
C1	C	0.64672	0.09229	0.59353
C2	C	0.65804	0.07708	0.57446
C3	C	0.6671	0.03701	0.56661
C3	C	0.65981	0.04977	0.58461
C3	C	0.70857	0.98991	0.66828
C3	C	0.6991	0.01932	0.65898
C3	C	0.71997	0.90876	0.6025
C1	C	0.70064	0.91279	0.64903
C2	C	0.7008	0.9242	0.62011
C4	C	0.72102	0.91847	0.57541
C1	C	0.70179	0.95744	0.53676
C2	C	0.70135	0.94383	0.56597
C3	C	0.68152	0.94924	0.61072
C3	C	0.68141	0.95856	0.58411
H1	H	0.85736	0.13622	0.79178
H1	H	0.8415	0.09684	0.82102
H1	H	0.71791	0.98337	0.65018
H1	H	0.71114	0.02994	0.63899
H1	H	0.83096	0.76792	0.92839
H1	H	0.71615	0.23535	0.74959
H1	H	0.66652	0.96148	0.62393
H1	H	0.66595	0.97768	0.57737
H1	H	0.73452	0.88903	0.60995
S1	S	0.74768	0.89662	0.55478
S1	S	0.51831	0.0331	0.564
S1	S	0.57377	0.92431	0.61864
H1	H	0.66731	0.01621	0.57504
H1	H	0.65467	0.03866	0.60644
S1	S	0.68197	0.09748	0.49163
H1	H	0.66372	0.11224	0.5382
H1	H	0.67871	0.17376	0.80985
Cr1	Cr	0.96258	0.51578	0.35674
Cr2	Cr	0.1781	0.90776	0.68713
O2	O	0.80004	0.84119	0.98108
O3	O	0.14555	0.90749	0.71986
O3	O	0.04324	0.85278	0.78327
O2	O	0.21698	0.66388	0.86523
O3	O	0.23602	0.69827	0.83722
O2	O	0.01924	0.53085	0.33423
O2	O	0.97293	0.54499	0.34908
O3	O	0.04676	0.64731	0.28013
O2	O	0.02197	0.68751	0.25625
O3	O	0.13775	0.61862	0.16079
O2	O	0.09783	0.64838	0.14817
O2	O	0.94546	0.71087	0.17783
O2	O	0.07784	0.66473	0.11
O3	O	0.87624	0.71234	0.25356
O2	O	0.912	0.72623	0.22164
O2	O	0.95241	0.69659	0.32444
O2	O	0.97193	0.71721	0.28025
F1	F	0.15537	0.92849	0.666
C3	C	0.78907	0.83407	0.94764
C3	C	0.12566	0.85291	0.75339
C3	C	0.10282	0.84402	0.76783
C4	C	0.23385	0.67234	0.80705
C1	C	0.21356	0.69044	0.84644
C2	C	0.21281	0.69079	0.82161
C3	C	0.19169	0.71175	0.81119
C3	C	0.01874	0.55263	0.36647
C1	C	0.99565	0.53448	0.35695
C2	C	0.9947	0.55472	0.36575
C3	C	0.97063	0.57651	0.37203
C3	C	0.08594	0.67631	0.21261
C1	C	0.04821	0.67087	0.25765
C2	C	0.06643	0.66339	0.23238
C4	C	0.10305	0.66984	0.18848
C1	C	0.11652	0.64452	0.15808
C2	C	0.10102	0.64961	0.18471
C3	C	0.06447	0.64327	0.22853
C3	C	0.08208	0.63602	0.20507
C3	C	0.99805	0.67022	0.16655
C3	C	0.02618	0.65872	0.15447
C4	C	0.90548	0.69832	0.28938
C1	C	0.90473	0.70394	0.24306
C2	C	0.91853	0.69442	0.26339
C4	C	0.92152	0.69603	0.30183
C1	C	0.96686	0.69305	0.2989
C2	C	0.95018	0.6889	0.28985
C3	C	0.94748	0.68485	0.25302
C3	C	0.96306	0.68204	0.26606
H1	H	0.14314	0.84357	0.73858
H1	H	0.10326	0.82788	0.76402
H1	H	0.99006	0.66851	0.18791
H1	H	0.03958	0.65009	0.16611
H1	H	0.77672	0.85296	0.95237
S1	S	0.26372	0.64513	0.81675
H1	H	0.95816	0.68149	0.23344
H1	H	0.9852	0.67633	0.25641
S1	S	0.86878	0.70716	0.30813
H1	H	0.91136	0.70109	0.3204
H1	H	0.03698	0.53476	0.36397
H1	H	0.95107	0.57711	0.37454
H1	H	0.04939	0.63317	0.24371
H1	H	0.08019	0.62059	0.20223
H1	H	0.08739	0.69178	0.21578
S1	S	0.12696	0.68815	0.16234
H1	H	0.17588	0.72631	0.82165
Cr2	Cr	0.49901	0.35791	0.96775
Cr1	Cr	0.90685	0.67966	0.18444
O3	O	0.82715	0.99684	0.80069
O2	O	0.91181	0.70768	0.14906
O3	O	0.84937	0.78132	0.04987
O2	O	0.66787	0.868	0.20837
O2	O	0.70094	0.83737	0.2297
O2	O	0.52986	0.33355	0.01386
O3	O	0.5287	0.36037	0.97042
O3	O	0.64464	0.29031	0.0416
O2	O	0.68776	0.26595	0.02027
O2	O	0.61045	0.17559	0.11404
O2	O	0.65483	0.14634	0.10922
O3	O	0.69251	0.18993	0.94399
O2	O	0.65768	0.13064	0.07255
O2	O	0.69376	0.26088	0.8893
O3	O	0.72494	0.22215	0.90884
O2	O	0.69606	0.33134	0.94933
O2	O	0.7188	0.28953	0.97157
F1	F	0.49629	0.39193	0.94043
C3	C	0.83428	0.94508	0.80534
C3	C	0.86996	0.74098	0.12065
C3	C	0.86346	0.75493	0.09649
C4	C	0.67206	0.81139	0.22718
C1	C	0.69391	0.84773	0.20634
C2	C	0.69207	0.82389	0.20588
C3	C	0.71168	0.81257	0.18499
C4	C	0.54755	0.374	0.01155
C1	C	0.52627	0.35999	0.99504
C2	C	0.54839	0.36866	0.99065
C3	C	0.57211	0.36776	0.96716
C4	C	0.63308	0.24311	0.05894
C1	C	0.66704	0.26689	0.04563
C2	C	0.65807	0.24222	0.05797
C3	C	0.62795	0.21863	0.07004
C1	C	0.63702	0.16847	0.09541
C2	C	0.64607	0.19331	0.08073
C3	C	0.67656	0.21653	0.06806
C3	C	0.67068	0.1924	0.07938
C3	C	0.69263	0.12679	0.98632
C3	C	0.69106	0.11645	0.01629
C4	C	0.71704	0.27404	0.91254
C1	C	0.69906	0.24222	0.91367
C2	C	0.69883	0.2588	0.92617
C3	C	0.71441	0.29024	0.92485
C1	C	0.69493	0.30498	0.96532
C2	C	0.69424	0.29174	0.95024
C3	C	0.67857	0.26058	0.95157
C3	C	0.67644	0.27677	0.96357
H1	H	0.86355	0.72337	0.1356
H1	H	0.85175	0.7477	0.09406
H1	H	0.71451	0.12361	0.97279
H1	H	0.69972	0.09367	0.02349
H1	H	0.85127	0.95292	0.79231
S1	S	0.64631	0.82303	0.25631
H1	H	0.66454	0.24918	0.96227
H1	H	0.66159	0.27683	0.98372
S1	S	0.74495	0.27334	0.87988
H1	H	0.72881	0.30104	0.91513
S1	S	0.51696	0.37854	0.04145
H1	H	0.57295	0.36454	0.95047
H1	H	0.69569	0.21518	0.06736
H1	H	0.68531	0.17316	0.08737
S1	S	0.60546	0.27413	0.0481
H1	H	0.60871	0.21944	0.07173
H1	H	0.72725	0.82168	0.16876
Cr2	Cr	0.96517	0.68212	0.49791
Cr1	Cr	0.18662	0.72121	0.90912
O3	O	0.79109	0.88185	0.82919
O2	O	0.15356	0.72085	0.911
O2	O	0.05348	0.81419	0.85752
O2	O	0.20496	0.75638	0.66869
O2	O	0.22795	0.73625	0.69903
O2	O	0.00913	0.62702	0.52727
O3	O	0.96529	0.64877	0.52844
O3	O	0.03036	0.53466	0.64568
O2	O	0.00665	0.53554	0.68906
O2	O	0.12645	0.58057	0.63132
O3	O	0.09161	0.59104	0.66955
O3	O	0.93682	0.66892	0.71444
O3	O	0.07165	0.6373	0.68051
O2	O	0.86691	0.66221	0.71453
O3	O	0.90436	0.64375	0.72685
O2	O	0.93789	0.53254	0.68985
O2	O	0.95708	0.53008	0.7154
F1	F	0.93526	0.68119	0.49667
C3	C	0.79125	0.92377	0.83771
C3	C	0.13482	0.75634	0.85556
C3	C	0.11165	0.77422	0.84728
C4	C	0.20149	0.8053	0.66925
C1	C	0.20314	0.75416	0.69373
C2	C	0.19819	0.78179	0.69334
C3	C	0.19299	0.7829	0.71854
C3	C	0.00621	0.57625	0.54203
C1	C	0.98855	0.62676	0.52304
C2	C	0.98372	0.60015	0.54327
C3	C	0.95964	0.59887	0.56593
C3	C	0.07739	0.53738	0.64684
C1	C	0.03297	0.52829	0.67008
C2	C	0.04979	0.54416	0.66377
C4	C	0.09352	0.55311	0.63766
C1	C	0.09786	0.59137	0.64345
C2	C	0.08209	0.57547	0.64714
C3	C	0.03802	0.56738	0.67136
C3	C	0.05394	0.58275	0.66308
C3	C	0.99194	0.66439	0.67403
C3	C	0.01984	0.65025	0.67847
C4	C	0.89529	0.60266	0.71908
C1	C	0.89547	0.6506	0.70618
C2	C	0.90532	0.62486	0.70015
C3	C	0.90902	0.57749	0.71437
C1	C	0.95149	0.54506	0.691
C2	C	0.93319	0.5736	0.69183
C3	C	0.92823	0.62136	0.67653
C3	C	0.94224	0.59589	0.67251
H1	H	0.15371	0.76098	0.8436
H1	H	0.11314	0.79228	0.82917
H1	H	0.99509	0.6737	0.65171
H1	H	0.018	0.63472	0.69934
H1	H	0.77423	0.91597	0.85023
S1	S	0.2093	0.80775	0.63455
H1	H	0.93647	0.63787	0.66212
H1	H	0.96098	0.5932	0.65512
S1	S	0.8661	0.60479	0.75055
H1	H	0.90205	0.5602	0.72936
H1	H	0.02462	0.57705	0.52406
H1	H	0.94137	0.61696	0.56648
H1	H	0.01648	0.57389	0.68354
H1	H	0.04428	0.60021	0.66983
H1	H	0.08609	0.52016	0.63994
S1	S	0.12739	0.54441	0.61224
H1	H	0.1906	0.76539	0.73703
Cr2	Cr	0.35309	0.50195	0.67813
Cr1	Cr	0.67234	0.90594	0.73334
O2	O	0.99994	0.81786	0.89252
O2	O	0.69981	0.9016	0.74466
O3	O	0.77369	0.85202	0.8224
O3	O	0.86013	0.67673	0.75436
O2	O	0.83121	0.7072	0.72933
O2	O	0.33359	0.53207	0.62261
O3	O	0.35818	0.53092	0.64284
O3	O	0.28691	0.6479	0.5319
O2	O	0.2634	0.69044	0.53523
O2	O	0.15424	0.64027	0.57807
O2	O	0.13877	0.67411	0.59556
O2	O	0.17477	0.71204	0.67053
O2	O	0.10411	0.67591	0.64567
O2	O	0.2514	0.71809	0.6566
O2	O	0.22045	0.72394	0.6412
O2	O	0.33357	0.70011	0.52435
O2	O	0.28925	0.72092	0.52736
F1	F	0.38465	0.50096	0.67807
C3	C	0.93966	0.82319	0.92179
C3	C	0.74162	0.89991	0.7558
C4	C	0.75694	0.89167	0.77191
C3	C	0.82479	0.69745	0.79737
C1	C	0.84199	0.70355	0.7475
C2	C	0.81866	0.7073	0.77371
C3	C	0.79097	0.71778	0.77576
C4	C	0.38399	0.55132	0.56911
C1	C	0.35934	0.5292	0.61981
C2	C	0.36648	0.55335	0.59547
C3	C	0.3517	0.57946	0.59833
C4	C	0.23522	0.63933	0.56881
C1	C	0.26417	0.67092	0.52822
C2	C	0.23791	0.66366	0.54557
C3	C	0.20947	0.63564	0.58337
C1	C	0.15954	0.64968	0.59155
C2	C	0.18673	0.65448	0.575
C3	C	0.21479	0.68236	0.53734
C3	C	0.18962	0.67769	0.5516
C3	C	0.16366	0.67327	0.66726
C3	C	0.14983	0.66539	0.66094
C3	C	0.27831	0.72125	0.60055
C1	C	0.24447	0.70606	0.64731
C2	C	0.26666	0.70099	0.62138
C4	C	0.29444	0.71949	0.5742
C1	C	0.30752	0.69791	0.5397
C2	C	0.29838	0.69725	0.5684
C3	C	0.2728	0.67785	0.61618
C3	C	0.28861	0.676	0.58988
H1	H	0.72631	0.92021	0.75231
S1	S	0.75011	0.91624	0.78588
H1	H	0.18452	0.673	0.65415
H1	H	0.16029	0.65909	0.64303
H1	H	0.94022	0.83807	0.90148
H1	H	0.84608	0.69028	0.79563
H1	H	0.26379	0.66218	0.6319
H1	H	0.2916	0.65891	0.58573
H1	H	0.27371	0.73914	0.6045
S1	S	0.3083	0.74696	0.54841
S1	S	0.40368	0.51867	0.56333
H1	H	0.33768	0.58171	0.61818
H1	H	0.2163	0.70071	0.51958
H1	H	0.17223	0.69248	0.54465
S1	S	0.26331	0.6116	0.58132
H1	H	0.20713	0.61769	0.60129
H1	H	0.78519	0.72641	0.75785
Cr1	Cr	0.68638	0.97029	0.34365
Cr1	Cr	0.7308	0.18641	0.68001
O3	O	0.87246	0.8028	0.98985
O2	O	0.74308	0.15283	0.70798
O3	O	0.82465	0.05067	0.7818
O3	O	0.75622	0.1883	0.87936
O2	O	0.73842	0.23336	0.85624
O3	O	0.62642	0.01726	0.33454
O2	O	0.65121	0.97248	0.34793
O2	O	0.53007	0.03377	0.29074
O2	O	0.53112	0.00925	0.27137
O2	O	0.58221	0.11844	0.17294
O3	O	0.57673	0.10639	0.14603
O2	O	0.66342	0.94305	0.18063
O3	O	0.62772	0.07217	0.13031
O2	O	0.66092	0.8734	0.25567
O2	O	0.64002	0.91019	0.22703
O3	O	0.53404	0.93749	0.33887
O2	O	0.53007	0.95913	0.29709
C3	C	0.9387	0.78521	0.97422
C3	C	0.77057	0.12634	0.74643
C3	C	0.788	0.10446	0.76121
C3	C	0.79215	0.22022	0.82271
C1	C	0.7501	0.2067	0.85552
C2	C	0.77664	0.20396	0.83201
C3	C	0.78579	0.18567	0.81878
C4	C	0.57587	0.00806	0.37309
C1	C	0.62828	0.99314	0.357
C2	C	0.60184	0.98676	0.36864
C4	C	0.60195	0.96156	0.37134
C4	C	0.52603	0.07392	0.22469
C1	C	0.52295	0.03556	0.27094
C2	C	0.53906	0.05089	0.24322
C3	C	0.54172	0.0883	0.19978
C1	C	0.58664	0.09656	0.16703
C2	C	0.57046	0.07942	0.19238
C3	C	0.56797	0.04183	0.23546
C3	C	0.58355	0.05583	0.21013
C3	C	0.6843	0.98784	0.12183
C3	C	0.67468	0.01715	0.11006
C4	C	0.6152	0.89876	0.29611
C1	C	0.65092	0.90174	0.24669
C2	C	0.62808	0.91381	0.26883
C3	C	0.58835	0.91199	0.31078
C1	C	0.54468	0.95382	0.31241
C2	C	0.57479	0.94002	0.29942
C3	C	0.61582	0.94248	0.25952
C3	C	0.58941	0.95538	0.27453
H1	H	0.77896	0.14142	0.72822
H1	H	0.80896	0.10361	0.75426
H1	H	0.67315	0.97948	0.11922
H1	H	0.6744	0.02599	0.08925
H1	H	0.93866	0.76996	0.99428
H1	H	0.7853	0.23416	0.83309
H1	H	0.62571	0.95468	0.23925
H1	H	0.57984	0.97718	0.26582
S1	S	0.63144	0.86318	0.31418
H1	H	0.57784	0.90008	0.33078
S1	S	0.57017	0.03983	0.37525
S1	S	0.6304	0.92926	0.37546
H1	H	0.57845	0.0241	0.24926
H1	H	0.60566	0.0489	0.20486
S1	S	0.48952	0.08511	0.23126
H1	H	0.53152	0.10652	0.18605
H1	H	0.774	0.17293	0.82578
Cr1	Cr	0.67788	0.50411	0.96964
Cr2	Cr	0.72898	0.90591	0.18216
O2	O	0.88243	0.83102	0.78897
O3	O	0.72877	0.90836	0.14881
O2	O	0.8045	0.86692	0.04476
O2	O	0.75645	0.67736	0.20455
O2	O	0.72889	0.70573	0.23109
O3	O	0.62164	0.52774	0.01836
O2	O	0.6436	0.5341	0.97339
O2	O	0.53002	0.65636	0.03142
O2	O	0.53337	0.69853	0.00544
O3	O	0.59051	0.61957	0.11469
O2	O	0.58191	0.66387	0.10783
O2	O	0.66635	0.70986	0.94479
O2	O	0.63246	0.66481	0.07422
O3	O	0.66355	0.71253	0.87317
O2	O	0.64341	0.72646	0.90919
O3	O	0.53062	0.69773	0.93773
O2	O	0.52843	0.72414	0.95588
F1	F	0.75648	0.92152	0.16074
C3	C	0.92857	0.8276	0.79321
C3	C	0.76321	0.86599	0.12384
C3	C	0.77967	0.8566	0.10138
C4	C	0.78795	0.68032	0.22548
C1	C	0.74927	0.70276	0.20607
C2	C	0.77453	0.70223	0.20639
C3	C	0.78536	0.72354	0.18733
C4	C	0.5689	0.5517	0.01308
C1	C	0.62093	0.52803	0.99529
C2	C	0.594	0.55031	0.99045
C4	C	0.59318	0.57232	0.96503
C4	C	0.53014	0.67316	0.07546
C1	C	0.52503	0.68116	0.03227
C2	C	0.54208	0.67527	0.04758
C3	C	0.54707	0.66253	0.09057
C1	C	0.59284	0.64485	0.09507
C2	C	0.57571	0.65518	0.0782
C3	C	0.57097	0.66782	0.03519
C3	C	0.58764	0.65839	0.05029
C3	C	0.68361	0.7024	0.9901
C3	C	0.6764	0.69364	0.01916
C3	C	0.60743	0.71735	0.89682
C1	C	0.65213	0.70428	0.90158
C2	C	0.62664	0.69848	0.91035
C4	C	0.58052	0.71721	0.90833
C1	C	0.54284	0.69921	0.95128
C2	C	0.57242	0.69744	0.93432
C3	C	0.61925	0.67783	0.93495
C3	C	0.5924	0.67718	0.94672
H1	H	0.77332	0.86586	0.13469
H1	H	0.80185	0.84953	0.09563
H1	H	0.66944	0.72353	0.98312
H1	H	0.67503	0.70685	0.02759
H1	H	0.92008	0.84476	0.77762
S1	S	0.77428	0.65325	0.25392
H1	H	0.63355	0.66348	0.94604
H1	H	0.58668	0.66198	0.96658
H1	H	0.61284	0.73378	0.87816
S1	S	0.55732	0.74598	0.89018
S1	S	0.56391	0.5238	0.04544
S1	S	0.61992	0.57075	0.93203
H1	H	0.58064	0.66887	0.01392
H1	H	0.60975	0.65312	0.04039
S1	S	0.49331	0.6832	0.09317
H1	H	0.53794	0.66012	0.11218
H1	H	0.77489	0.74087	0.17334
Cr1	Cr	0.34873	0.96433	0.50622
Cr1	Cr	0.66931	0.1981	0.90003
O2	O	0.99493	0.78397	0.83906
O2	O	0.69586	0.16337	0.89486
O2	O	0.77445	0.05474	0.85432
O2	O	0.86815	0.18297	0.69269
O3	O	0.84788	0.22815	0.68907
O2	O	0.33782	0.01069	0.52922
O2	O	0.34995	0.96592	0.5368
O2	O	0.28764	0.0246	0.65402
O3	O	0.26312	0.00573	0.69665
O2	O	0.17406	0.11918	0.61776
O3	O	0.14682	0.11232	0.66255
O2	O	0.16949	0.93482	0.72953
O3	O	0.13154	0.07374	0.66953
O2	O	0.25155	0.86923	0.7139
O2	O	0.22124	0.90635	0.72832
O2	O	0.33308	0.93386	0.70281
O3	O	0.28962	0.95544	0.72508
C3	C	0.95159	0.78426	0.83305
C3	C	0.7358	0.12967	0.86426
C3	C	0.75183	0.10536	0.85814
C3	C	0.8146	0.2158	0.68035
C1	C	0.84568	0.20205	0.70499
C2	C	0.82034	0.20231	0.70486
C3	C	0.80287	0.18862	0.72836
C3	C	0.37466	-0.00047	0.55369
C1	C	0.35952	0.98569	0.53087
C2	C	0.36887	0.97906	0.5539
C4	C	0.36864	0.95481	0.57763
C4	C	0.24196	0.07036	0.64165
C1	C	0.26589	0.03071	0.67639
C2	C	0.24059	0.04926	0.66775
C3	C	0.21838	0.08611	0.63423
C1	C	0.16778	0.09943	0.64347
C2	C	0.19301	0.08221	0.65205
C3	C	0.21492	0.04572	0.68573
C3	C	0.19146	0.06193	0.67792
C3	C	0.1235	0.98899	0.6924
C3	C	0.10722	0.01807	0.69438
C3	C	0.27795	0.89363	0.72135
C1	C	0.24319	0.89772	0.70666
C2	C	0.26595	0.90588	0.70123
C4	C	0.293	0.90567	0.72115
C1	C	0.30662	0.94827	0.70153
C2	C	0.29612	0.93079	0.70022
C3	C	0.27097	0.92936	0.67935
C3	C	0.28605	0.94165	0.6788
H1	H	0.71808	0.14269	0.85776
H1	H	0.74557	0.10142	0.84669
H1	H	0.10948	0.97693	0.70352
H1	H	0.09169	0.02875	0.68403
H1	H	0.96014	0.76745	0.84874
H1	H	0.8282	0.22609	0.66208
H1	H	0.26152	0.93932	0.66385
H1	H	0.28825	0.96075	0.66256
H1	H	0.27367	0.87573	0.73849
S1	S	0.3044	0.88969	0.75031
S1	S	0.38061	0.0292	0.52353
S1	S	0.37015	0.92301	0.57896
H1	H	0.21289	0.0303	0.70593
H1	H	0.17204	0.05871	0.69215
S1	S	0.27334	0.07772	0.61538
H1	H	0.22022	0.10138	0.61401
H1	H	0.8071	0.17779	0.74743
Cr2	Cr	0.96507	0.35768	0.67562
Cr2	Cr	0.18876	0.67868	0.7301
O2	O	0.78312	1.00186	0.89075
O3	O	0.15272	0.70661	0.73473
O2	O	0.05075	0.77058	0.82579
O2	O	0.21175	0.85807	0.75657
O2	O	0.22697	0.83303	0.72943
O2	O	0.01724	0.34842	0.61836
O3	O	0.97199	0.36867	0.63697
O2	O	0.03597	0.27885	0.52748
O3	O	0.0145	0.25549	0.52874
O2	O	0.11406	0.17153	0.59152
O2	O	0.10838	0.13903	0.58691
O2	O	0.9397	0.18178	0.67673
O2	O	0.07375	0.12457	0.63749
O3	O	0.88439	0.25352	0.66717
O2	O	0.89799	0.21626	0.65561
O2	O	0.94115	0.31844	0.53201
O3	O	0.9647	0.27777	0.5267
F1	F	0.17212	0.65311	0.75849
F1	F	0.9347	0.38951	0.67541
C3	C	0.77708	0.96423	0.94407
C3	C	0.12673	0.73925	0.77286
C3	C	0.1041	0.75431	0.7898
C4	C	0.23025	0.78877	0.77877
C1	C	0.20701	0.83988	0.75274
C2	C	0.20761	0.81406	0.77767
C3	C	0.1844	0.81571	0.80143
C3	C	0.00291	0.36541	0.57247
C1	C	0.99145	0.34803	0.62565
C2	C	0.98674	0.35416	0.60002
C3	C	0.96466	0.34847	0.604
C4	C	0.08028	0.21355	0.52924
C1	C	0.03989	0.25719	0.52142
C2	C	0.05424	0.23144	0.53974
C3	C	0.09302	0.1903	0.54743
C1	C	0.09514	0.16209	0.59483
C2	C	0.07981	0.1844	0.57592
C3	C	0.04117	0.22522	0.56836
C3	C	0.05373	0.20172	0.58634
C3	C	0.98889	0.11962	0.69236
C3	C	0.01822	0.10733	0.68513
C4	C	0.9049	0.26476	0.60679
C1	C	0.90665	0.23422	0.65513
C2	C	0.91924	0.24967	0.62583
C3	C	0.9178	0.2788	0.57984
C1	C	0.95839	0.29249	0.54208
C2	C	0.94425	0.27881	0.57145
C3	C	0.94568	0.24998	0.61741
C3	C	0.95796	0.26477	0.59043
H1	H	0.14109	0.72038	0.78167
H1	H	0.1022	0.74667	0.81115
H1	H	0.9822	0.11634	0.68029
H1	H	0.02723	0.08572	0.68724
H1	H	0.75927	0.97549	0.9375
S1	S	0.26334	0.78354	0.75119
H1	H	0.95665	0.23909	0.63185
H1	H	0.97797	0.26553	0.58433
S1	S	0.87014	0.26684	0.61533
H1	H	0.90707	0.28999	0.56535
S1	S	0.02784	0.38047	0.56278
H1	H	0.95072	0.34212	0.62463
H1	H	0.02141	0.23893	0.5768
H1	H	0.04368	0.19771	0.60827
S1	S	0.09826	0.22023	0.49273
H1	H	0.11352	0.17704	0.53944
H1	H	0.167	0.83463	0.80125
Cr2	Cr	0.49997	0.67966	0.35241
Cr1	Cr	0.90289	0.73001	0.67557
O2	O	0.83351	0.88001	0.99
O2	O	0.90553	0.73496	0.70339
O2	O	0.85054	0.82732	0.77092
O2	O	0.67467	0.75766	0.86991
O3	O	0.70382	0.73377	0.83871
O2	O	0.52735	0.62209	0.33698
O3	O	0.53119	0.64665	0.35314
O2	O	0.64183	0.5312	0.29241
O3	O	0.68435	0.53545	0.26852
O3	O	0.61419	0.59177	0.17567
O2	O	0.65952	0.58428	0.14914
O2	O	0.71836	0.66926	0.17484
O2	O	0.65996	0.63494	0.13269
O2	O	0.71344	0.66144	0.25322
O2	O	0.73052	0.64425	0.21994
O2	O	0.69686	0.53094	0.33231
O3	O	0.7169	0.53005	0.2898
F1	F	0.50187	0.67934	0.38254
C3	C	0.82263	0.9349	0.96161
C3	C	0.89442	0.75785	0.74017
C4	C	0.88693	0.77493	0.75423
C4	C	0.67626	0.79281	0.81386
C1	C	0.6999	0.75265	0.84872
C2	C	0.69831	0.77901	0.82451
C3	C	0.72086	0.78847	0.80985
C4	C	0.54844	0.57172	0.38359
C1	C	0.52683	0.62297	0.36005
C2	C	0.55055	0.59831	0.3684
C3	C	0.57668	0.60093	0.35686
C4	C	0.64401	0.57473	0.23826
C1	C	0.6653	0.52766	0.26979
C2	C	0.65746	0.54584	0.24464
C3	C	0.63927	0.59028	0.21322
C1	C	0.63848	0.59462	0.16996
C2	C	0.6462	0.5777	0.19528
C3	C	0.66436	0.53335	0.22654
C3	C	0.65831	0.54905	0.20229
C3	C	0.70259	0.6579	0.147
C3	C	0.69398	0.65137	0.13402
C3	C	0.69696	0.61484	0.28899
C1	C	0.70725	0.65127	0.24139
C2	C	0.69931	0.62601	0.2612
C4	C	0.69288	0.5893	0.30571
C1	C	0.69379	0.54414	0.30675
C2	C	0.69251	0.57398	0.2938
C3	C	0.69575	0.61233	0.25067
C3	C	0.69302	0.58664	0.26645
H1	H	0.91562	0.75108	0.72735
S1	S	0.9138	0.78504	0.74898
H1	H	0.71756	0.64173	0.15689
H1	H	0.70267	0.63037	0.13441
H1	H	0.84075	0.92393	0.96764
S1	S	0.64728	0.7815	0.82704
H1	H	0.69683	0.62082	0.22947
H1	H	0.69252	0.57616	0.25649
H1	H	0.69846	0.62586	0.29775
S1	S	0.68675	0.57923	0.34196
S1	S	0.51606	0.56598	0.39811
H1	H	0.57948	0.62071	0.34433
H1	H	0.67428	0.51133	0.23132
H1	H	0.66317	0.53884	0.18894
S1	S	0.62959	0.59344	0.26157
H1	H	0.62929	0.61222	0.20813
H1	H	0.73914	0.77694	0.81561
Cr1	Cr	0.78631	0.85181	0.01171
Cr1	Cr	0.84747	0.79192	0.84111
Cr2	Cr	0.01196	0.84049	0.80105
F1	F	0.00578	0.85788	0.76791
Cr1	Cr	0.84232	0.01409	0.85825
Cr1	Cr	0.01764	0.78415	0.85365
Cr1	Cr	0.84395	0.84901	0.79033
Cr1	Cr	0.78896	0.01903	0.85131
Cr1	Cr	0.83864	0.84885	0.02188
Cr2	Cr	0.84708	0.0152	0.80005
F1	F	0.87002	0.01115	0.766
Cr2	Cr	0.79115	0.84402	0.84636
F1	F	0.75697	0.85791	0.87019
Cr2	Cr	0.8408	0.79341	0.0173
F1	F	0.85985	0.75753	0.01758
Cr1	Cr	0.0173	0.83847	0.85479
Cr1	Cr	0.21544	0.1522	0.15187
Cr1	Cr	0.15561	0.20959	0.9804
Cr1	Cr	0.98484	0.15683	0.15377
Cr1	Cr	0.15532	0.98632	0.2064
Cr1	Cr	0.9864	0.209	0.1567
Cr1	Cr	0.15182	0.15755	0.97922
Cr2	Cr	0.21088	0.9873	0.15167
F1	F	0.24535	0.99075	0.13524
Cr1	Cr	0.15891	0.16004	0.2039
Cr1	Cr	0.15672	0.98452	0.15178
Cr2	Cr	0.20887	0.15251	0.97918
F1	F	0.24373	0.12914	0.98089
Cr2	Cr	0.16391	0.20975	0.14559
F1	F	0.15045	0.24337	0.12115
Cr2	Cr	0.98239	0.15411	0.21082
F1	F	0.98305	0.13198	0.24608
Cr1	Cr	0.71033	0.28713	0.00745
O1	O	0.67799	0.32128	0.00635
Cr1	Cr	0.28395	0.7134	0.50343
O1	O	0.31836	0.68131	0.50057
Cr1	Cr	0.9937	0.50483	0.70929
O1	O	-0.00428	0.50451	0.67547
Cr1	Cr	0.50209	-0.00549	0.29564
O1	O	0.50354	0.99424	0.32784
Cr1	Cr	1.00794	0.71335	0.27392
O1	O	1.00984	0.68328	0.30919
Cr1	Cr	0.49291	0.28507	0.71263
O1	O	0.49558	0.31862	0.68023
Cr1	Cr	0.71686	-0.00091	0.49425
O1	O	0.68248	-0.00164	0.49808
Cr2	Cr	0.29781	0.49749	-0.00401
O1	O	0.3296	0.49781	-0.00205
F1	F	0.2679	0.49714	-0.00581
Cr2	Cr	0.28558	0.99199	0.71819
O1	O	0.31982	-0.00868	0.68571
F1	F	0.25403	-0.00785	0.74888
Cr2	Cr	0.70902	0.50468	0.28683
O1	O	0.67843	0.50251	0.32189
F1	F	0.73764	0.50705	0.25357
Cr1	Cr	0.5028	0.71899	-0.0075
O1	O	0.50125	0.68564	-0.0051
Cr2	Cr	-0.00014	0.27766	0.49958
O1	O	0.99756	0.31101	0.50126
F1	F	1.00212	0.2464	0.49803
Cr2	Cr	0.28525	0.71413	0.00325
O1	O	0.31828	0.68088	0.00192
F1	F	0.25464	0.74569	0.00419
Cr1	Cr	0.71162	0.28611	0.50323
O1	O	0.67898	0.31981	0.50308
Cr2	Cr	-0.0011	0.49214	0.30324
O1	O	0.99824	0.50133	0.33041
F1	F	0.00011	0.48274	0.27739
Cr2	Cr	0.50112	0.99781	0.70949
O1	O	0.50115	-0.00269	0.67683
F1	F	0.501	-0.002	0.74043
Cr1	Cr	0.99472	0.28978	0.70673
O1	O	0.99763	0.3242	0.67616
Cr1	Cr	0.49577	0.713	0.2879
O1	O	0.49768	0.67969	0.32086
Cr2	Cr	0.28432	0.00197	0.50178
O1	O	0.31854	-0.00089	0.50242
F1	F	0.25224	0.0047	0.50128
Cr1	Cr	0.71342	0.50084	0.00175
O1	O	0.67982	0.50099	0.00275
Cr1	Cr	0.71558	0.00776	0.27845
O1	O	0.68436	1.00507	0.3135
Cr1	Cr	0.28714	0.50273	0.71026
O1	O	0.32041	0.50211	0.67774
Cr1	Cr	0.5033	0.29116	-0.00785
O1	O	0.50134	0.32237	-0.00274
Cr1	Cr	0.99521	0.71774	0.49864
O1	O	-0.00326	0.68374	0.49843
Cr1	Cr	0.85331	0.39478	0.85571
Cr1	Cr	0.39194	0.85764	0.39282
Cr1	Cr	0.86255	0.86071	0.37777
Cr1	Cr	0.39521	0.39612	0.85042
Cr2	Cr	0.38716	0.86223	0.86302
F1	F	0.40836	0.83992	0.84144
Cr2	Cr	0.85136	0.3968	0.39492
F1	F	0.82535	0.41606	0.41899
Cr1	Cr	0.14031	0.61056	0.60492
Cr1	Cr	0.59796	0.14547	0.14216
Cr1	Cr	0.14287	0.14416	0.60612
Cr2	Cr	0.60348	0.60692	0.14418
F1	F	0.58125	0.5853	0.16481
Cr1	Cr	0.6071	0.14066	0.60499
Cr2	Cr	0.14945	0.59289	0.1427
F1	F	0.17303	0.56932	0.1629
Cr1	Cr	0.10336	0.66967	0.61689
Cr1	Cr	0.6598	0.11241	0.10854
Cr2	Cr	0.60614	0.1066	0.11199
F1	F	0.59169	0.08964	0.10617
Cr2	Cr	0.10867	0.61122	0.66888
F1	F	0.10283	0.59225	0.70602
Cr1	Cr	0.6091	0.11021	0.66837
Cr1	Cr	0.11452	0.65388	0.1103
Cr1	Cr	0.11069	0.60062	0.1128
Cr2	Cr	0.6669	0.10656	0.6151
F1	F	0.70491	0.09243	0.60066
Cr1	Cr	0.66534	0.61297	0.11489
Cr2	Cr	0.11264	0.11027	0.66963
F1	F	0.10636	0.09867	0.70677
Cr1	Cr	0.10991	0.10631	0.61794
Cr1	Cr	0.61019	0.66853	0.10939
Cr1	Cr	0.88984	0.3335	0.88749
Cr1	Cr	0.33064	0.89406	0.38598
Cr2	Cr	0.38686	0.89288	0.33122
F1	F	0.40404	0.90155	0.29355
Cr2	Cr	0.88877	0.38943	0.8877
F1	F	0.89723	0.40602	0.90022
Cr1	Cr	0.38247	0.89935	0.89233
Cr1	Cr	0.88983	0.33746	0.38352
Cr1	Cr	0.89269	0.39541	0.33235
Cr1	Cr	0.32642	0.89383	0.90032
Cr1	Cr	0.33145	0.39246	0.89215
Cr2	Cr	0.89093	0.89378	0.38031
F1	F	0.89421	0.90663	0.40062
Cr1	Cr	0.89824	0.89653	0.3218
Cr2	Cr	0.38799	0.33475	0.89094
F1	F	0.40339	0.2971	0.90578
Cr2	Cr	0.2995	0.30565	0.13646
O1	O	0.29748	0.30262	0.10678
C1	C	0.2732	0.27543	0.10578
C2	C	0.25836	0.25672	0.11394
C1	C	0.21518	0.20222	0.14173
C2	C	0.23028	0.221	0.13214
Cr1	Cr	0.29551	0.30427	0.76141
O1	O	0.2959	0.29943	0.7956
C1	C	0.27244	0.27214	0.84628
C2	C	0.25398	0.25561	0.86921
C1	C	0.20574	0.20412	0.93836
C2	C	0.2206	0.22355	0.91338
Cr1	Cr	0.13275	0.76325	0.3017
O1	O	0.10749	0.79978	0.3023
C1	C	0.11677	0.84845	0.27712
C2	C	0.12803	0.87213	0.25936
C1	C	0.15527	0.94247	0.20167
C2	C	0.14843	0.9165	0.22213
Cr1	Cr	0.75904	0.14209	0.303
O1	O	0.79428	0.11364	0.30253
C1	C	0.84526	0.11556	0.27646
C2	C	0.87	0.12494	0.25671
C1	C	0.94101	0.15208	0.20275
C2	C	0.91647	0.1423	0.22064
Cr1	Cr	0.13868	0.30528	0.29592
O1	O	0.11027	0.29975	0.29464
C1	C	0.11304	0.27398	0.26731
C2	C	0.12528	0.258	0.24815
C1	C	0.15747	0.21195	0.19391
C2	C	0.14725	0.22937	0.21127
Cr1	Cr	0.7587	0.30628	0.3042
O1	O	0.79464	0.3066	0.29458
C1	C	0.8454	0.28078	0.26532
C2	C	0.86945	0.26198	0.2492
C1	C	0.94148	0.20606	0.20591
C2	C	0.91624	0.22642	0.22005
Cr2	Cr	0.3033	0.13977	0.75166
O1	O	0.29999	0.1126	0.7882
C1	C	0.27433	0.1165	0.83975
C2	C	0.25683	0.12788	0.86371
C1	C	0.20141	0.15347	0.93611
C2	C	0.2203	0.1465	0.90977
Cr2	Cr	0.29888	0.75717	0.14039
O1	O	0.29556	0.79372	0.11341
C1	C	0.26868	0.84502	0.11647
C2	C	0.25125	0.86902	0.1273
C1	C	0.20737	0.94428	0.14826
C2	C	0.22093	0.91763	0.14186
Cr1	Cr	0.31042	0.1395	0.29983
O1	O	0.30545	0.1123	0.29537
C1	C	0.2785	0.11549	0.26769
C2	C	0.26119	0.12639	0.25002
C1	C	0.21056	0.15361	0.20101
C2	C	0.2292	0.14414	0.21722
Cr1	Cr	0.29633	0.75836	0.3103
O1	O	0.29248	0.7952	0.30369
C1	C	0.26944	0.84582	0.27026
C2	C	0.25545	0.86979	0.24965
C1	C	0.20644	0.94519	0.20209
C2	C	0.22571	0.91844	0.21614
Cr1	Cr	0.76455	0.2977	0.13787
O1	O	0.79932	0.29519	0.10836
C1	C	0.85129	0.27088	0.10864
C2	C	0.87608	0.25655	0.11774
C1	C	0.94421	0.20908	0.14917
C2	C	0.92043	0.22558	0.13838
Cr1	Cr	0.13323	0.30854	0.75525
O1	O	0.1068	0.30266	0.79187
C1	C	0.11305	0.27387	0.84182
C2	C	0.12457	0.25482	0.86533
C1	C	0.14975	0.20759	0.93813
C2	C	0.14195	0.22202	0.91224
Cr1	Cr	0.69542	0.70004	0.24188
O1	O	0.70329	0.70209	0.20551
C1	C	0.72942	0.73089	0.1547
C2	C	0.74285	0.75178	0.13045
C1	C	0.78762	0.80249	0.05445
C2	C	0.76965	0.78782	0.08193
Cr2	Cr	0.70242	0.69795	0.86297
O1	O	0.70204	0.70316	0.89272
C1	C	0.72559	0.72984	0.89549
C2	C	0.74336	0.7463	0.88623
C1	C	0.79701	0.79345	0.84837
C2	C	0.7787	0.77696	0.86091
Cr2	Cr	0.86191	0.23828	0.70374
O1	O	0.89025	0.20249	0.70923
C1	C	0.88785	0.15081	0.73835
C2	C	0.87831	0.12576	0.75469
C1	C	0.85308	0.05328	0.80788
C2	C	0.86075	0.0791	0.78923
Cr1	Cr	0.23663	0.8624	0.697
O1	O	0.20134	0.88852	0.70865
C1	C	0.1511	0.88273	0.74103
C2	C	0.12583	0.87395	0.75756
C1	C	0.05448	0.84691	0.80205
C2	C	0.07949	0.85606	0.7868
Cr2	Cr	0.86481	0.69815	0.24013
O1	O	0.8932	0.70413	0.20426
C1	C	0.89253	0.733	0.15138
C2	C	0.88466	0.74945	0.12549
C1	C	0.86198	0.79478	0.05121
C2	C	0.87156	0.7779	0.07618
Cr2	Cr	0.24538	0.69496	0.86526
O1	O	0.2099	0.69311	0.89249
C1	C	0.15885	0.71584	0.88816
C2	C	0.13368	0.73289	0.87918
C1	C	0.06106	0.78925	0.8545
C2	C	0.08661	0.76914	0.86256
Cr1	Cr	0.69823	0.86546	0.69674
O1	O	0.70004	0.89353	0.70228
C1	C	0.72714	0.8908	0.72904
C2	C	0.74526	0.88208	0.74462
C1	C	0.79251	0.85361	0.79559
C2	C	0.7768	0.86495	0.77667
Cr1	Cr	0.69339	0.24021	0.70308
O1	O	0.69958	0.2037	0.70662
C1	C	0.72686	0.15252	0.73496
C2	C	0.74314	0.12852	0.75411
C1	C	0.79783	0.05893	0.7999
C2	C	0.77876	0.08358	0.78424
Cr1	Cr	0.69983	0.86341	0.24019
O1	O	0.69894	0.89136	0.20495
C1	C	0.71856	0.88878	0.15474
C2	C	0.73429	0.87665	0.13152
C1	C	0.78573	0.85336	0.05782
C2	C	0.76778	0.85815	0.08532
Cr1	Cr	0.69979	0.24596	0.86418
O1	O	0.69789	0.21086	0.89181
C1	C	0.7232	0.15993	0.88859
C2	C	0.74167	0.13637	0.87959
C1	C	0.78739	0.06158	0.86313
C2	C	0.77461	0.08631	0.86721
Cr1	Cr	0.24198	0.70096	0.69524
O1	O	0.20636	0.70439	0.69931
C1	C	0.15524	0.73182	0.72653
C2	C	0.13057	0.74809	0.74503
C1	C	0.05816	0.79158	0.80091
C2	C	0.08366	0.77821	0.77991
Cr1	Cr	0.8583	0.7007	0.69568
O1	O	0.88685	0.70166	0.70157
C1	C	0.88374	0.73011	0.72779
C2	C	0.87509	0.74928	0.74251
C1	C	0.84992	0.80067	0.78881
C2	C	0.85949	0.78295	0.77219
O1	O	0.17293	0.17401	0.97757
O1	O	0.18048	0.17507	0.16805
O1	O	0.98154	0.17453	0.17456
O1	O	0.17504	0.98441	0.17042
O1	O	0.82614	0.82714	0.82441
O1	O	0.82206	0.83142	0.01667
O1	O	0.0177	0.82073	0.83539
O1	O	0.8253	0.0193	0.83562
O1	O	0.87765	0.37241	0.87691
O1	O	0.36962	0.88199	0.36974
O1	O	0.88647	0.88182	0.35982
O1	O	0.37131	0.37433	0.87717
O1	O	0.36523	0.88527	0.88533
O1	O	0.87769	0.37634	0.36992
O1	O	0.117	0.63063	0.63043
O1	O	0.62129	0.12203	0.12001
O1	O	0.12121	0.1204	0.63148
O1	O	0.62655	0.62954	0.12259
O1	O	0.62787	0.11917	0.6297
O1	O	0.12567	0.61605	0.12068
F1	F	0.83699	0.69249	0.2736
F1	F	0.27931	0.69694	0.83902
F1	F	0.70325	0.69315	0.83425
F1	F	0.83463	0.27237	0.69869
F1	F	0.30553	0.16632	0.7173
F1	F	0.3022	0.72249	0.16657
F1	F	0.30099	0.30837	0.16516
C1	C	0.01228	0.10999	0.19438
C2	C	0.03743	0.0846	0.19418
C1	C	0.11049	0.01264	0.19125
C2	C	0.0849	0.03742	0.19172
C1	C	0.18792	0.19016	0.00967
C2	C	0.18935	0.18989	0.03434
C1	C	0.19378	0.18832	0.10529
C2	C	0.19299	0.18809	0.08062
C1	C	0.18666	0.01478	0.10728
C2	C	0.18658	0.03901	0.08109
C1	C	0.19101	0.10933	0.00685
C2	C	0.1894	0.08446	0.03219
C1	C	0.01455	0.19055	0.18908
C2	C	0.04057	0.18972	0.18867
C1	C	0.11581	0.18952	0.18523
C2	C	0.09024	0.19018	0.18429
C1	C	0.10911	0.18781	0.01026
C2	C	0.08481	0.18753	0.03631
C1	C	0.01531	0.18699	0.11138
C2	C	0.03972	0.18662	0.08555
C1	C	0.19297	0.01642	0.18416
C2	C	0.19289	0.04145	0.18469
C1	C	0.19642	0.11069	0.18677
C2	C	0.19431	0.08601	0.18829
C1	C	0.98393	0.88282	0.82725
C2	C	0.9592	0.90865	0.82828
C1	C	0.88775	0.98252	0.82257
C2	C	0.91268	0.95678	0.82331
C1	C	0.80916	0.81192	0.8887
C2	C	0.80709	0.81086	0.91546
C1	C	0.80646	0.81346	0.98729
C2	C	0.80382	0.81066	0.96466
C1	C	0.8077	0.98487	0.82389
C2	C	0.81092	0.9579	0.82397
C1	C	0.81454	0.88993	0.81185
C2	C	0.81402	0.91196	0.81806
C1	C	0.98929	0.7976	0.90057
C2	C	0.96332	0.80057	0.92507
C1	C	0.88818	0.80843	0.99574
C2	C	0.9146	0.80763	0.97109
C1	C	0.89034	0.80908	0.81124
C2	C	0.91614	0.80733	0.81207
C1	C	0.98748	0.80554	0.81656
C2	C	0.96348	0.80496	0.81461
C1	C	0.8034	0.99469	0.90068
C2	C	0.8003	0.97264	0.92867
C1	C	0.80546	0.89429	0.99348
C2	C	0.80112	0.92417	0.9749
C1	C	0.16463	0.69297	0.69504
C2	C	0.15041	0.68228	0.68982
C1	C	0.10912	0.65598	0.67024
C2	C	0.12282	0.66535	0.67762
C1	C	0.68286	0.17039	0.94906
C2	C	0.67563	0.15474	0.97741
C1	C	0.65817	0.11325	0.06321
C2	C	0.66385	0.12575	0.03439
C1	C	0.68782	0.94893	0.16446
C2	C	0.68129	0.9777	0.15024
C1	C	0.6538	0.06348	0.1124
C2	C	0.6652	0.03468	0.12442
C1	C	0.94448	0.69185	0.69475
C2	C	0.97332	0.6849	0.68693
C1	C	0.05928	0.66355	0.66402
C2	C	0.03034	0.66919	0.67474
C1	C	0.69091	0.16142	0.69992
C2	C	0.68103	0.14828	0.69253
C1	C	0.65415	0.11153	0.66831
C2	C	0.66342	0.12378	0.67743
C1	C	0.9514	0.69398	0.16447
C2	C	0.98028	0.68389	0.1514
C1	C	0.06593	0.64661	0.11556
C2	C	0.03704	0.6577	0.12791
C1	C	0.1681	0.68053	0.94999
C2	C	0.1541	0.67309	0.97879
C1	C	0.11499	0.65387	0.0644
C2	C	0.12774	0.65905	0.03569
C1	C	0.69138	0.95028	0.69535
C2	C	0.68719	0.97834	0.68925
C1	C	0.66283	0.0638	0.66258
C2	C	0.67393	0.03457	0.67416
C1	C	0.69854	0.69169	0.16372
C2	C	0.69134	0.68453	0.14792
C1	C	0.66149	0.66033	0.11364
C2	C	0.67333	0.67093	0.12222
C1	C	0.15903	0.94634	0.70824
C2	C	0.14671	0.9753	0.70144
C1	C	0.11441	0.06282	0.6721
C2	C	0.12486	0.03344	0.68325
C1	C	0.94926	0.16129	0.69838
C2	C	0.97832	0.14831	0.68844
C1	C	0.06479	0.10937	0.66486
C2	C	0.03565	0.12215	0.6746
C1	C	0.69014	0.69286	0.95158
C2	C	0.68365	0.68487	0.98033
C1	C	0.65891	0.66425	0.06575
C2	C	0.6698	0.66963	0.037
C1	C	0.83836	0.30825	0.04926
C2	C	0.85049	0.3186	0.0203
C1	C	0.88815	0.34317	0.93359
C2	C	0.87627	0.33395	0.96268
C1	C	0.30254	0.83823	0.30631
C2	C	0.31216	0.85328	0.31195
C1	C	0.34041	0.89297	0.33159
C2	C	0.33028	0.87958	0.32465
C1	C	0.30919	0.05541	0.30718
C2	C	0.31401	0.02668	0.31674
C1	C	0.33379	0.94078	0.34091
C2	C	0.3278	0.96968	0.33208
C1	C	0.05072	0.30412	0.8358
C2	C	0.02249	0.30674	0.85259
C1	C	0.93468	0.33581	0.88544
C2	C	0.96428	0.32392	0.877
C1	C	0.30871	0.83513	0.05712
C2	C	0.31746	0.85162	0.02898
C1	C	0.3322	0.8934	0.94315
C2	C	0.32799	0.88097	0.97185
C1	C	0.05327	0.30144	0.30891
C2	C	0.0247	0.3049	0.31892
C1	C	0.93687	0.3411	0.34104
C2	C	0.96631	0.32766	0.33372
C1	C	0.83674	0.31964	0.29599
C2	C	0.85197	0.32869	0.30211
C1	C	0.89309	0.35157	0.32584
C2	C	0.87913	0.34438	0.31645
C1	C	0.30554	0.05649	0.83066
C2	C	0.30993	0.02819	0.84711
C1	C	0.33492	0.94359	0.89212
C2	C	0.32367	0.97223	0.87875
C1	C	0.31015	0.30916	0.04925
C2	C	0.31766	0.3126	0.02132
C1	C	0.34289	0.34241	0.93513
C2	C	0.33331	0.32854	0.96404
C1	C	0.83428	0.05493	0.31371
C2	C	0.849	0.02626	0.3193
C1	C	0.89143	0.94073	0.33679
C2	C	0.87899	0.9696	0.32884
C1	C	0.05314	0.84592	0.31532
C2	C	0.02474	0.86164	0.32303
C1	C	0.94173	0.89382	0.32842
C2	C	0.97027	0.88226	0.32442
C1	C	0.30728	0.30924	0.83394
C2	C	0.316	0.31974	0.84564
C1	C	0.34487	0.35005	0.87533
C2	C	0.3347	0.33917	0.86546
O4	O	0.06805	0.25739	0.11923
O4	O	0.0896	0.25823	0.14309
O4	O	0.12806	0.10544	0.16151
O4	O	0.14825	0.06367	0.15231
O4	O	0.01673	0.04318	0.27322
O4	O	-0.00176	0.03431	0.25264
O4	O	0.22546	0.22623	-0.02424
O4	O	0.17924	0.25543	-0.0091
O4	O	0.25363	0.02379	0.00269
O4	O	0.26259	0.06056	-0.00132
O4	O	0.02322	0.20776	0.01038
O4	O	0.06575	0.17166	0.00056
O4	O	0.24155	0.35088	0.17313
O4	O	0.19494	0.38041	0.18309
O4	O	0.30925	0.12144	0.16772
O4	O	0.2726	0.12545	0.15894
O4	O	0.12094	0.28075	0.15728
O4	O	0.12997	0.31186	0.16296
O4	O	0.25011	0.30404	0.05151
O4	O	0.25192	0.26785	0.04351
O4	O	0.36729	0.16361	0.23165
O4	O	0.3876	0.18297	0.18328
O4	O	0.24936	0.20288	0.33772
O4	O	0.25122	0.24307	0.2986
O4	O	0.11158	0.37884	0.35693
O4	O	0.13803	0.23617	0.38107
O4	O	0.14352	0.2485	0.4098
O4	O	0.0695	0.36148	0.45449
O4	O	0.08473	0.3909	0.40873
O4	O	0.12726	0.19862	0.48583
O4	O	0.10544	0.24669	0.47928
O4	O	0.50428	0.35563	0.05594
O4	O	0.52363	0.37568	0.06482
O4	O	0.40007	0.38594	0.09873
O4	O	0.44304	0.38657	0.08969
O4	O	0.33661	0.34605	0.12148
O4	O	0.38078	0.33573	0.12106
O4	O	0.43876	0.08257	0.34574
O4	O	0.40005	0.12098	0.33521
O4	O	0.05604	0.35821	0.56457
O4	O	0.03607	0.3978	0.53195
O4	O	0.2888	0.65152	0.12532
O4	O	0.32885	0.64971	0.12649
O4	O	0.42117	0.66866	0.0639
O4	O	0.38037	0.69492	0.05114
O4	O	0.28134	0.1522	0.36715
O4	O	0.24317	0.14091	0.37739
O4	O	0.3653	0.07392	0.45329
O4	O	0.3933	0.08875	0.40641
O4	O	0.17986	0.12094	0.49801
O4	O	0.14337	0.11933	0.54116
O4	O	0.39388	0.04347	0.52677
O4	O	0.40295	0.02122	0.49794
O4	O	0.29047	0.07981	0.62638
O4	O	0.26694	0.10669	0.59383
O4	O	0.59114	0.0387	0.38396
O4	O	0.54317	0.04687	0.39894
O4	O	0.57719	0.12354	0.24925
O4	O	0.57263	0.10094	0.22935
O4	O	0.48165	0.06305	0.23318
O4	O	0.47226	0.08744	0.26021
O4	O	0.48668	0.18874	0.11793
O4	O	0.50858	0.18381	0.14504
O4	O	0.27352	0.10791	0.66167
O4	O	0.24486	0.08023	0.69477
O4	O	0.40736	0.07006	0.6567
O4	O	0.39902	0.09022	0.61472
O4	O	0.385	0.52496	0.05917
O4	O	0.40296	0.49445	0.03492
O4	O	0.24444	0.67947	0.09864
O4	O	0.22378	0.64609	0.13628
O4	O	0.18874	0.48634	0.10926
O4	O	0.14947	0.52672	0.11282
O4	O	0.05315	0.59152	0.37375
O4	O	0.06168	0.5434	0.39047
O4	O	0.0791	0.66858	0.34128
O4	O	0.06902	0.69124	0.37012
O4	O	0.14356	0.47859	0.2295
O4	O	0.11262	0.45918	0.23767
O4	O	0.11896	0.70626	0.13608
O4	O	0.12565	0.70992	0.17018
O4	O	0.52322	0.05308	0.53405
O4	O	0.50856	0.0524	0.57957
O4	O	0.12795	0.69858	0.4385
O4	O	0.08442	0.703	0.47447
O4	O	0.04997	0.52124	0.5328
O4	O	0.04009	0.49621	0.58054
O4	O	0.1492	0.52209	0.62612
O4	O	0.12862	0.52895	0.59702
O4	O	0.05705	0.60128	0.55508
O4	O	0.04727	0.59025	0.60263
O4	O	0.23527	0.73226	0.28169
O4	O	0.24427	0.76396	0.23702
O4	O	0.07931	0.45413	0.60309
O4	O	0.0946	0.40687	0.60879
O4	O	0.1211	0.43146	0.72141
O4	O	0.11295	0.39374	0.76248
O4	O	0.12226	0.2335	0.70706
O4	O	0.08069	0.23651	0.70733
O4	O	0.19374	0.27625	0.71437
O4	O	0.22103	0.23637	0.70083
O4	O	0.11918	0.24997	0.57797
O4	O	0.0984	0.22841	0.57334
O4	O	0.37132	0.15562	0.68872
O4	O	0.39347	0.13824	0.6518
O4	O	0.65374	0.52027	0.15405
O4	O	0.69554	0.49251	0.12968
O4	O	0.48163	0.66225	0.09878
O4	O	0.48566	0.68132	0.12281
O4	O	0.53537	0.52165	0.05535
O4	O	0.58302	0.49476	0.04399
O4	O	0.68244	0.12588	0.48493
O4	O	0.65888	0.10591	0.48122
O4	O	0.53395	0.1246	0.68975
O4	O	0.52016	0.14972	0.64996
O4	O	0.70042	0.13601	0.24071
O4	O	0.70356	0.09618	0.23765
O4	O	0.60898	0.09406	0.40693
O4	O	0.64889	0.07724	0.41826
O4	O	0.68554	0.14606	0.42029
O4	O	0.69416	0.15851	0.37421
O4	O	0.65702	0.44819	0.11404
O4	O	0.64308	0.43414	0.09311
O4	O	0.61225	0.39142	0.09998
O4	O	0.64881	0.35695	0.08057
O4	O	0.76413	0.22652	0.1221
O4	O	0.72061	0.224	0.13378
O4	O	0.35593	0.72341	0.24686
O4	O	0.33658	0.70338	0.238
O4	O	0.30508	0.9206	0.17932
O4	O	0.27603	0.93788	0.15389
O4	O	0.17989	0.75838	0.17849
O4	O	0.20123	0.78789	0.1361
O4	O	0.41087	0.68538	0.14374
O4	O	0.36738	0.69	0.14686
O4	O	0.2399	0.44776	0.11761
O4	O	0.27586	0.42959	0.13437
O4	O	0.1574	0.72873	0.24903
O4	O	0.15592	0.68324	0.26876
O4	O	0.6151	0.29073	0.01722
O4	O	0.58252	0.26756	0.04985
O4	O	0.17225	0.39014	0.77581
O4	O	0.2003	0.37123	0.80285
O4	O	0.12903	0.16672	0.90719
O4	O	0.08642	0.19079	0.93293
O4	O	0.09425	0.92351	0.30393
O4	O	0.11381	0.87531	0.32459
O4	O	0.37189	0.19704	0.73145
O4	O	0.36804	0.15291	0.74915
O4	O	0.30853	0.12747	0.89116
O4	O	0.31938	0.13442	0.84438
O4	O	0.66279	0.27811	0.44983
O4	O	0.69797	0.24496	0.46987
O4	O	0.763	0.16947	0.1851
O4	O	0.78118	0.13193	0.21998
O4	O	0.59014	0.24269	0.53646
O4	O	0.59589	0.19528	0.5602
O4	O	0.75872	0.25054	0.21837
O4	O	0.72676	0.28533	0.23812
O4	O	0.74672	0.23096	0.37331
O4	O	0.79255	0.2201	0.36999
O4	O	0.58046	0.42602	0.50384
O4	O	0.5783	0.38874	0.50086
O4	O	0.6448	0.42034	0.36162
O4	O	0.60367	0.41099	0.39558
O4	O	0.70431	0.42822	0.23255
O4	O	0.74876	0.39375	0.22989
O4	O	0.41771	0.40319	0.58791
O4	O	0.46449	0.379	0.58635
O4	O	0.36959	0.41589	0.66992
O4	O	0.34103	0.43339	0.64326
O4	O	0.36424	0.26689	0.70712
O4	O	0.38	0.23784	0.7458
O4	O	0.47162	0.23339	0.69929
O4	O	0.48204	0.21083	0.66996
O4	O	0.63841	0.61911	0.24634
O4	O	0.63961	0.57894	0.28638
O4	O	0.48667	0.66015	0.20879
O4	O	0.52495	0.62329	0.1942
O4	O	0.86958	0.23939	0.61952
O4	O	0.85923	0.28625	0.59091
O4	O	0.49706	0.5746	0.42398
O4	O	0.51963	0.53509	0.41033
O4	O	0.20793	0.49872	0.65121
O4	O	0.16176	0.5292	0.66357
O4	O	0.35165	0.65739	0.41804
O4	O	0.35922	0.61054	0.44809
O4	O	0.42495	0.50066	0.57845
O4	O	0.38588	0.50043	0.57667
O4	O	0.2539	0.58756	0.60563
O4	O	0.28613	0.59676	0.56034
O4	O	0.24216	0.72012	0.38689
O4	O	0.22209	0.76528	0.38948
O4	O	0.45335	0.6592	0.27569
O4	O	0.41983	0.68979	0.25322
O4	O	0.26866	0.89742	0.27752
O4	O	0.3143	0.89074	0.24476
O4	O	0.07234	0.64513	0.7337
O4	O	0.05485	0.69157	0.70679
O4	O	0.30614	0.25991	0.89049
O4	O	0.26405	0.29722	0.89784
O4	O	0.6825	0.06103	0.74482
O4	O	0.6483	0.06873	0.72947
O4	O	0.93166	0.30428	0.25156
O4	O	0.90316	0.27645	0.27607
O4	O	0.64456	0.7549	0.093
O4	O	0.65018	0.72575	0.07285
O4	O	0.71986	0.95707	0.98263
O4	O	0.73869	0.92291	1.01836
O4	O	0.76459	0.95763	0.8894
O4	O	0.7467	0.99308	0.85342
O4	O	0.85805	0.85131	0.95156
O4	O	0.88862	0.86503	0.90586
O4	O	0.99539	0.96812	0.78318
O4	O	1.00987	0.92688	0.81823
O4	O	0.90465	0.74831	0.84363
O4	O	0.93703	0.73031	0.86591
O4	O	0.8628	0.74829	0.97517
O4	O	0.81901	0.75114	1.01126
O4	O	0.73882	0.90615	0.81763
O4	O	0.72601	0.9429	0.77924
O4	O	0.78798	0.70981	0.93817
O4	O	0.77988	0.68199	0.927
O4	O	0.93961	0.77873	0.72411
O4	O	0.90596	0.81645	0.73998
O4	O	0.83353	0.82443	0.60814
O4	O	0.87059	0.79173	0.62545
O4	O	0.65666	0.75298	0.82535
O4	O	0.63099	0.77695	0.85798
O4	O	0.80368	0.6994	0.86751
O4	O	0.84748	0.67425	0.84274
O4	O	0.83867	0.6216	0.74448
O4	O	0.86187	0.57675	0.7698
O4	O	0.92353	0.58246	0.63962
O4	O	0.9193	0.54986	0.63099
O4	O	0.90248	0.7556	0.52797
O4	O	0.88238	0.72073	0.54917
O4	O	0.76372	0.58156	0.86606
O4	O	0.77059	0.61247	0.87419
O4	O	0.53268	0.74067	0.89383
O4	O	0.54268	0.76948	0.90211
O4	O	0.57562	0.86712	0.77184
O4	O	0.61131	0.87618	0.77
O4	O	0.76022	0.91168	0.52397
O4	O	0.77349	0.8807	0.56361
O4	O	0.59384	0.90137	0.60568
O4	O	0.5462	0.91938	0.63062
O4	O	0.98123	0.58752	0.46454
O4	O	1.01042	0.57685	0.4874
O4	O	0.37998	0.37299	0.98987
O4	O	0.41959	0.35028	1.00367
O4	O	0.8878	0.29201	0.8005
O4	O	0.91108	0.3027	0.7522
O4	O	0.96046	0.51289	0.60185
O4	O	0.95809	0.48191	0.63613
O4	O	0.86925	0.50936	0.81235
O4	O	0.8446	0.48035	0.82693
O4	O	0.8257	0.26823	0.75903
O4	O	0.81459	0.26437	0.80471
O4	O	0.46597	0.31095	0.84917
O4	O	0.5058	0.30927	0.80891
O4	O	0.64501	0.33991	0.93382
O4	O	0.61444	0.37681	0.90967
O4	O	0.89844	0.36512	0.66347
O4	O	0.88684	0.35049	0.71205
O4	O	0.91507	0.36597	0.56615
O4	O	0.90459	0.36368	0.6111
O4	O	0.38261	1.00197	0.75125
O4	O	0.39824	0.9658	0.73591
O4	O	0.41623	0.93819	0.65058
O4	O	0.42546	0.96211	0.60233
O4	O	0.87805	0.44587	0.43474
O4	O	0.85681	0.42859	0.4253
O4	O	0.87197	0.30898	0.51665
O4	O	0.91555	0.28358	0.52352
O4	O	0.92844	0.47793	0.42517
O4	O	0.92575	0.46377	0.47128
O4	O	0.86185	0.29957	0.44982
O4	O	0.83747	0.33315	0.47245
O4	O	0.72313	0.90638	0.46879
O4	O	0.73029	0.90157	0.5071
O4	O	0.86091	0.8809	0.27852
O4	O	0.82043	0.88124	0.27887
O4	O	0.61202	0.96345	0.50689
O4	O	0.60271	0.95351	0.47912
O4	O	0.62011	0.90439	0.39275
O4	O	0.64504	0.92538	0.39302
O4	O	0.77311	0.87927	0.23519
O4	O	0.76861	0.87152	0.28024
O4	O	0.62135	0.8434	0.31505
O4	O	0.62077	0.85864	0.34518
O4	O	0.48101	0.92828	0.44392
O4	O	0.4813	0.94247	0.47444
O4	O	0.43247	0.85329	0.40991
O4	O	0.45751	0.86772	0.4179
O4	O	0.36667	0.86612	0.50099
O4	O	0.35947	0.90392	0.51048
O4	O	0.92466	0.76873	0.28003
O4	O	0.88203	0.7978	0.30231
O4	O	0.86404	0.80229	0.41671
O4	O	0.88335	0.75454	0.43869
O4	O	0.91697	0.60921	0.40852
O4	O	0.93965	0.63633	0.40251
O4	O	0.85394	0.73854	0.29883
O4	O	0.86279	0.70149	0.33853
O4	O	0.96882	0.60353	0.30968
O4	O	0.9941	0.62144	0.26266
O4	O	0.5042	0.82529	0.87129
O4	O	0.47455	0.8383	0.84797
O4	O	0.35447	0.71566	1.00477
O4	O	0.36062	0.75199	1.00538
O4	O	0.4816	0.59257	0.96541
O4	O	0.50219	0.62051	0.96116
O4	O	0.85509	0.77398	0.24186
O4	O	0.81005	0.80004	0.2644
O4	O	0.29718	0.87189	0.82914
O4	O	0.29921	0.87604	0.86572
O4	O	0.30234	0.86054	0.76702
O4	O	0.28389	0.90415	0.772
O4	O	0.38949	0.91633	0.55202
O4	O	0.38403	0.89776	0.59967
O4	O	0.27277	0.8735	0.5836
O4	O	0.22883	0.88226	0.61807
O4	O	0.18555	0.80655	0.63175
O4	O	0.21089	0.8362	0.61315
O4	O	0.28032	0.65566	0.82022
O4	O	0.25561	0.62382	0.84547
O4	O	0.41454	0.44342	0.85016
O4	O	0.39941	0.48662	0.85495
O4	O	0.47214	0.47139	0.94345
O4	O	0.42718	0.48267	0.9446
O4	O	0.58183	0.34516	0.85346
O4	O	0.554	0.368	0.8868
O4	O	0.73464	0.2824	0.85653
O4	O	0.76549	0.24408	0.88029
O4	O	0.61528	0.46423	0.94716
O4	O	0.64447	0.41801	0.94988
O4	O	0.71774	0.42762	1.00504
O4	O	0.75693	0.38636	1.00436
O4	O	0.81428	0.35462	0.85018
O4	O	0.80417	0.31299	0.8731
O4	O	0.60803	0.58861	0.90826
O4	O	0.63254	0.54203	0.92934
O4	O	0.71054	0.55427	0.35147
O4	O	0.66217	0.5685	0.3609
O4	O	0.63079	0.73296	0.28319
O4	O	0.58308	0.75967	0.29282
O4	O	0.77388	0.63355	0.24466
O4	O	0.79366	0.6329	0.27108
O4	O	0.66	0.81785	0.27536
O4	O	0.62754	0.80517	0.2763
O4	O	0.37986	0.75063	0.37838
O4	O	0.4016	0.73811	0.40847
O4	O	0.36774	0.81399	0.47085
O4	O	0.40574	0.7982	0.43399
O4	O	0.72452	0.81399	0.04483
O4	O	0.68832	0.82409	0.08472
O4	O	0.75639	0.26188	0.65051
O4	O	0.80421	0.2557	0.62658
O4	O	0.38839	0.61261	0.90451
O4	O	0.39252	0.63934	0.92055
O4	O	0.28062	0.7352	0.85557
O4	O	0.28196	0.76535	0.86945
O4	O	0.30464	0.76598	0.56128
O4	O	0.34003	0.73603	0.53575
O4	O	0.3156	0.52428	0.90635
O4	O	0.31979	0.56168	0.86413
O4	O	0.28596	0.75701	0.76114
O4	O	0.27608	0.80552	0.74066
O4	O	0.07067	0.92398	0.80493
O4	O	0.11772	0.90207	0.80252
O4	O	0.76385	0.2966	0.5686
O4	O	0.76784	0.27758	0.53957
O4	O	0.37068	0.38263	0.75194
O4	O	0.34822	0.42294	0.72177
O4	O	0.29995	0.58728	0.75385
O4	O	0.25279	0.61589	0.76396
O4	O	0.74003	0.26136	0.74699
O4	O	0.70424	0.27792	0.78351
O4	O	0.60684	0.24543	0.77301
O4	O	0.57644	0.29182	0.76443
O4	O	0.06027	0.84417	0.73742
O4	O	0.03696	0.818	0.74211
O4	O	0.11556	0.69088	0.94524
O4	O	0.12108	0.67049	0.91627
O4	O	0.15946	0.29112	0.90544
O4	O	0.18015	0.29639	0.92624
O4	O	0.69393	0.08293	0.81988
O4	O	0.69001	0.10398	0.77541
O4	O	0.80561	0.04696	0.91846
O4	O	0.81281	0.08708	0.90887
O4	O	0.89061	0.13345	0.68749
O4	O	0.90344	0.08487	0.70243
O4	O	0.97205	0.08467	0.20758
O4	O	0.94037	0.06847	0.21202
O4	O	0.91472	0.27698	0.15167
O4	O	0.91735	0.30413	0.16779
O4	O	0.90524	0.29367	0.05064
O4	O	0.89647	0.2576	0.05269
O4	O	0.875	0.84278	0.05252
O4	O	0.91529	0.82016	0.06514
O4	O	0.67099	0.86986	0.15542
O4	O	0.67867	0.87632	0.10971
O4	O	0.15922	0.9566	0.1251
O4	O	0.17909	0.92521	0.10178
O4	O	0.77471	0.51993	0.27074
O4	O	0.75194	0.53079	0.31202
O4	O	0.11993	0.22928	0.11003
O4	H	0.12326	0.21043	0.1122
O4	O	0.11419	0.0643	0.20194
O4	O	-0.02156	0.08409	0.25343
O4	O	0.21651	0.26003	-0.00276
O4	O	0.23441	0.07279	-0.03022
O4	O	0.06713	0.22142	-0.02455
O4	O	0.28163	0.17042	0.14457
O4	O	0.29805	0.26598	0.03948
O4	O	0.17223	0.27652	0.14029
O4	O	0.38488	0.13436	0.20156
O4	O	0.15783	0.27584	0.3577
O5	O	0.36546	0.37799	0.08277
O5	O	0.26975	0.47794	0.09769
O5	O	0.08249	0.22399	0.47286
O5	O	0.29112	0.19766	0.29284
O5	O	0.44679	0.11844	0.29605
O5	O	0.48977	0.40905	0.03757
O5	O	0.24576	0.14666	0.41641
O5	O	0.56391	0.5254	0.0735
O5	O	0.35021	0.50916	0.06164
O5	O	0.17517	0.50417	0.14751
O5	O	0.27432	0.62785	0.1055
O5	O	0.22157	0.381	0.1329
O5	O	0.47395	0.11553	0.2096
O5	O	0.13587	0.41255	0.31549
O5	O	0.52698	0.14298	0.12851
O5	O	0.58796	0.29794	0.06481
O5	O	0.07929	0.41762	0.65189
O5	O	0.10995	0.26466	0.66243
O5	O	0.16717	0.15542	0.52013
O5	O	0.29666	0.05626	0.59602
O5	O	0.56605	0.06946	0.34731
O5	O	0.57924	0.14891	0.19873
O5	O	0.10848	0.46731	0.27883
O5	O	0.60199	0.07806	0.4587
O5	O	0.65841	0.11906	0.27144
O5	O	0.73483	0.14772	0.38516
O5	O	0.48946	0.02648	0.5724
O5	O	0.71223	0.08247	0.46926
O5	O	0.35335	0.05563	0.51291
O5	O	0.4438	0.34447	0.0871
O5	O	0.0203	0.40095	0.57989
O5	O	0.08183	0.56534	0.33817
O5	O	0.16153	0.66973	0.15074
O5	O	0.03486	0.7121	0.3445
O5	O	0.11106	0.65672	0.46473
O5	O	0.15002	0.70408	0.30132
O5	O	0.59861	0.36471	0.08821
O5	O	0.65295	0.39959	0.13868
O5	O	0.4255	0.70611	0.01495
O5	O	0.33608	0.63329	0.08982
O5	O	0.44837	0.0798	0.61131
O5	O	0.23116	0.12667	0.69968
O5	O	0.72315	0.24489	0.16135
O5	O	0.14476	0.19837	0.58389
O5	O	0.15187	0.38247	0.71863
O5	O	0.16786	0.24882	0.71917
O5	O	0.31073	0.71359	0.2839
O5	O	0.47229	0.71515	0.0787
O5	O	0.69728	0.53446	0.13076
O5	O	0.94717	0.25042	0.04278
O5	O	0.48674	0.12704	0.69542
O5	O	0.77334	0.17994	0.39493
O5	O	0.73229	0.29686	0.18828
O5	O	0.35645	0.07067	0.41657
O5	O	0.23314	0.74199	0.16065
O5	O	0.20014	0.75173	0.25783
O5	O	0.151	0.90921	0.152
O5	O	0.36951	0.72909	0.15289
O5	O	0.34341	0.13879	0.68134
O5	O	0.59403	0.60681	0.27453
O5	O	0.51882	0.6724	0.15794
O5	O	0.60657	0.73321	0.11575
O5	O	0.70629	0.37736	0.25695
O5	O	0.89135	0.32012	0.2352
O5	O	0.07491	0.35036	0.41457
O5	O	0.08775	0.42652	0.35201
O5	O	0.46163	0.70416	0.2357
O5	O	0.41606	0.23734	0.69725
O5	O	0.89878	0.74614	0.33116
O5	O	0.9633	0.61632	0.4953
O5	O	0.41142	0.40111	0.97109
O5	O	0.43269	0.50983	0.96352
O5	O	0.37162	0.4816	0.83639
O5	O	0.58275	0.91404	0.64652
O5	O	0.65639	0.92141	0.34656
O5	O	0.7429	0.84979	0.27666
O5	O	0.66681	0.84823	0.306
O5	O	0.47854	0.35569	0.81815
O5	O	0.75139	0.24514	0.79052
O5	O	0.62864	0.28405	0.73873
O5	O	0.67133	0.13591	0.80328
O5	O	0.62615	0.83967	0.74915
O5	O	0.74062	0.87104	0.55637
O5	O	0.83657	0.84713	0.32125
O5	O	0.76084	0.86222	0.48583
O5	O	0.64364	0.38961	0.91919
O5	O	0.76534	0.29289	0.86638
O5	O	0.40536	0.89228	0.4319
O5	O	0.33693	0.88569	0.74614
O5	O	0.33988	0.91873	0.5876
O5	O	0.272	0.85016	0.63377
O5	O	0.46765	0.93079	0.61867
O5	O	0.59141	0.42771	0.97376
O5	O	0.23371	0.76985	0.87551
O5	O	0.36105	0.53564	0.88193
O5	O	0.34338	0.64859	0.92395
O5	O	0.53459	0.3384	0.88528
O5	O	0.92277	0.65006	0.36312
O5	O	1.01291	0.56931	0.28723
O5	O	0.84384	0.06193	0.87281
O5	O	0.88918	0.33223	0.52897
O5	O	0.78563	0.22406	0.62736
O5	O	0.50467	0.5735	1.00116
O5	O	0.39943	0.72716	0.9707
O5	O	0.94467	0.50405	0.4353
O5	O	0.90948	0.77349	0.38746
O5	O	0.65214	0.92935	0.48047
O5	O	0.42339	1.00109	0.70543
O5	O	0.3421	0.84192	0.8413
O5	O	0.74293	0.33052	0.52964
O5	O	0.69952	0.04907	0.70121
O5	O	0.73375	0.16861	0.23532
O5	O	0.00579	0.6189	0.58481
O5	O	0.14206	0.56924	0.58646
O5	O	0.06789	0.52925	0.55832
O5	O	0.95307	0.10794	0.16739
O5	O	0.068	0.89288	0.31617
O5	O	0.26583	0.96706	0.18108
O5	O	0.57089	0.22824	0.58891
O5	O	0.7288	0.4013	0.97489
O5	O	0.85174	0.30957	0.86757
O5	O	0.99643	0.48773	0.58521
O5	O	0.62396	0.85661	0.25125
O5	O	0.86298	0.33788	0.77031
O5	O	0.92314	0.31752	0.60464
O5	O	0.61452	0.77217	0.24199
O5	O	0.72016	0.85405	0.0545
O5	O	0.66485	0.91958	0.1203
O5	O	0.84912	0.69256	0.30972
O5	O	0.73866	0.63342	0.84575
O5	O	0.64763	0.58036	0.92131
O5	O	0.68066	0.60361	0.35376
O5	O	0.89698	0.60198	0.60676
O5	O	0.42209	0.51817	0.53003
O5	O	0.86409	0.61852	0.77126
O5	O	0.49575	0.58107	0.37807
O5	O	0.85722	0.75959	0.57027
O5	O	0.8418	0.77311	0.62171
O5	O	0.7423	0.66193	0.27825
O5	O	0.42744	0.35861	0.62889
O5	O	0.28921	0.27363	0.93302
O5	O	0.81821	0.74942	0.27566
O5	O	0.47354	0.26344	0.64853
O5	O	0.36617	0.3805	0.6601
O5	O	0.22496	0.37744	0.75063
O5	O	0.32349	0.08464	0.87913
O5	O	0.1539	0.26179	0.95672
O5	O	0.0589	0.68353	0.75174
O5	O	0.1234	0.15764	0.95655
O5	O	0.34012	0.1934	0.71691
O5	O	0.90271	0.39569	0.43653
O5	O	0.62226	0.80198	0.81159
O5	O	0.73805	0.70972	0.95869
O5	O	0.92667	0.77107	0.77514
O5	O	0.77631	0.92732	0.77665
O5	O	0.88788	0.76165	0.88621
O5	O	0.73072	0.95019	0.88053
O5	O	0.74353	0.90669	0.98246
O5	O	0.83415	0.72359	0.98048
O5	O	0.87992	0.88636	0.93913
O5	O	1.02117	0.92221	0.77251
O5	O	0.07787	0.82753	0.69725
O5	O	0.10654	0.94191	0.75911
O5	O	0.07115	0.69479	0.94303
O5	O	0.28805	0.62557	0.79564
O5	O	0.28984	0.6395	0.72775
O5	O	0.26536	0.78212	0.72202
O5	O	0.85393	0.35242	0.69407
O5	O	0.2388	0.78441	0.62015
O5	O	0.86477	0.23741	0.78064
O5	O	0.31819	0.8861	0.53283
O5	O	0.87285	0.46698	0.8564
O5	O	0.42214	0.7056	0.3814
O5	O	0.91932	0.81471	0.02268
O5	O	0.57093	0.7618	0.85527
O5	O	0.51654	0.95229	0.42522
O5	O	0.46106	0.86904	0.87493
O5	O	0.21112	0.72546	0.43489
O5	O	0.38321	0.6194	0.39537
O5	O	0.28028	0.61838	0.59236
O5	O	0.19225	0.54129	0.61173
O5	O	0.29652	0.76906	0.52093
H2	H	0.11907	0.05724	0.2184
H2	H	-0.03434	0.07637	0.2714
H2	H	0.2052	0.2644	0.01448
H2	H	0.25285	0.06738	-0.04381
H2	H	0.07209	0.23155	-0.01975
H2	H	0.29221	0.1664	0.12713
H2	H	0.30732	0.24784	0.05086
H2	H	0.18595	0.26837	0.14933
H2	H	0.40217	0.1278	0.20492
H2	H	0.15053	0.29522	0.35657
H2	H	0.37927	0.3777	0.06439
H2	H	0.25553	0.48426	0.11346
H2	H	0.09707	0.22352	0.45484
H2	H	0.29924	0.20178	0.30068
H2	H	0.43945	0.12736	0.28087
H2	H	0.49672	0.42071	0.01844
H2	H	0.23509	0.16595	0.40831
H2	H	0.56519	0.54366	0.06712
H2	H	0.33415	0.52555	0.05786
H2	H	0.1895	0.50866	0.14665
H2	H	0.27909	0.61828	0.09338
H2	H	0.20833	0.38131	0.12733
H2	H	0.48299	0.12832	0.20436
H2	H	0.14121	0.41328	0.32827
H2	H	0.5119	0.13729	0.14511
H2	H	0.57488	0.31318	0.05517
H2	H	0.07057	0.40345	0.66568
H2	H	0.11018	0.28337	0.65613
H2	H	0.18211	0.15412	0.52406
H2	H	0.28689	0.04448	0.60039
H2	H	0.56377	0.08401	0.3525
H2	H	0.59203	0.15817	0.19302
H2	H	0.10144	0.48334	0.28438
H2	H	0.60112	0.09676	0.45424
H2	H	0.65304	0.11619	0.29103
H2	H	0.72628	0.16629	0.38659
H2	H	0.47492	0.0447	0.56927
H2	H	0.71682	0.0979	0.45252
H2	H	0.33708	0.05528	0.52989
H2	H	0.43831	0.33746	0.10737
H2	H	0.03682	0.40621	0.57164
H2	H	0.07508	0.5652	0.32615
H2	H	0.16302	0.65037	0.16222
H2	H	0.0156	0.71435	0.35706
H2	H	0.11018	0.65053	0.45273
H2	H	0.13328	0.70281	0.31772
H2	H	0.58853	0.3759	0.07496
H2	H	0.66591	0.39326	0.14801
H2	H	0.40965	0.72252	0.0108
H2	H	0.3359	0.61558	0.10497
H2	H	0.44042	0.09751	0.61437
H2	H	0.2248	0.12193	0.71981
H2	H	0.7284	0.22546	0.17318
H2	H	0.15216	0.20439	0.56359
H2	H	0.1514	0.37874	0.70454
H2	H	0.15978	0.23538	0.73599
H2	H	0.29126	0.72567	0.28657
H2	H	0.45461	0.71856	0.09383
H2	H	0.70901	0.54198	0.11186
H2	H	0.9575	0.25445	0.04827
H2	H	0.48656	0.10848	0.70867
H2	H	0.78972	0.16495	0.3888
H2	H	0.71971	0.28648	0.19651
H2	H	0.34376	0.08965	0.4158
H2	H	0.23864	0.73509	0.17668
H2	H	0.21343	0.73786	0.24855
H2	H	0.16202	0.88955	0.15816
H2	H	0.36649	0.71696	0.17229
H2	H	0.34271	0.12055	0.68655
H2	H	0.59005	0.61358	0.28867
H2	H	0.52814	0.68524	0.15193
H2	H	0.60375	0.72046	0.13491
H2	H	0.69568	0.37238	0.27684
H2	H	0.87657	0.33792	0.23622
H2	H	0.06131	0.35606	0.40625
H2	H	0.45701	0.72218	0.23652
H2	H	0.42173	0.25027	0.67852
H2	H	0.90578	0.73956	0.34605
H2	H	0.95635	0.60114	0.51004
H2	H	0.40039	0.40486	0.98868
H2	H	0.43242	0.50619	0.98169
H2	H	0.35198	0.48365	0.84736
H2	H	0.59212	0.92668	0.64093
H2	H	0.64956	0.93564	0.33117
H2	H	0.72457	0.85323	0.291
H2	H	0.67277	0.86207	0.30396
H2	H	0.47226	0.37138	0.80295
H2	H	0.75634	0.26204	0.78039
H2	H	0.63024	0.29664	0.71964
H2	H	0.6545	0.13098	0.81221
H2	H	0.63119	0.8418	0.72986
H2	H	0.72201	0.87203	0.57025
H2	H	0.82518	0.84951	0.33945
H2	H	0.74571	0.85499	0.50026
H2	H	0.63012	0.40674	0.92324
H2	H	0.75222	0.31152	0.86659
H2	H	0.4001	0.9125	0.42342
H2	H	0.3491	0.88071	0.72927
H2	H	0.32514	0.93383	0.59474
H2	H	0.28572	0.85349	0.63533
H2	H	0.47978	0.94174	0.60414
H2	H	0.57983	0.42661	0.99306
H2	H	0.23794	0.78147	0.85591
H2	H	0.36622	0.54764	0.88405
H2	H	0.32888	0.64127	0.93986
H2	H	0.53885	0.31856	0.89019
H2	H	0.93292	0.64488	0.34634
H2	H	1.00875	0.55407	0.28974
H2	H	0.85542	0.05079	0.88467
H2	H	0.89383	0.34901	0.51536
H2	H	0.78344	0.23919	0.6101
H2	H	0.49326	0.57101	1.02073
H2	H	0.40377	0.73898	0.9512
H2	H	0.92493	0.51549	0.43967
H2	H	0.92917	0.76859	0.38403
H2	H	0.66698	0.93319	0.46267
H2	H	0.4373	1.00539	0.70536
H2	H	0.35926	0.84485	0.82634
H2	H	0.72719	0.34334	0.53936
H2	H	0.70693	0.06022	0.68195
H2	H	0.72943	0.18511	0.23881
H2	H	-0.00468	0.62242	0.60251
H2	H	0.16044	0.5591	0.57603
H2	H	0.06083	0.54809	0.55858
H2	H	0.93623	0.1232	0.16395
H2	H	0.06425	0.89627	0.3002
H2	H	0.25433	0.96688	0.20017
H2	H	0.57757	0.23547	0.59524
H2	H	0.73858	0.40518	0.95489
H2	H	0.85469	0.29868	0.88551
H2	H	0.99807	0.48991	0.56692
H2	H	0.61136	0.8575	0.26982
H2	H	0.85906	0.35469	0.77302
H2	H	0.93611	0.30563	0.61506
H2	H	0.60592	0.77379	0.23053
H2	H	0.70649	0.86514	0.04489
H2	H	0.6781	0.92961	0.10988
H2	H	0.83016	0.70064	0.32113
H2	H	0.71969	0.63516	0.84985
H2	H	0.64277	0.58829	0.93488
H2	H	0.67791	0.59416	0.37362
H2	H	0.88102	0.59937	0.62377
H2	H	0.43084	0.49848	0.5318
H2	H	0.84654	0.61787	0.78668
H2	H	0.47923	0.57545	0.39035
H2	H	0.84859	0.76983	0.55588
H2	H	0.82523	0.76786	0.63506
H2	H	0.73975	0.67972	0.27802
H2	H	0.42114	0.3592	0.64744
H2	H	0.28435	0.28993	0.93714
H2	H	0.80298	0.7486	0.27398
H2	H	0.48874	0.27056	0.63413
H2	H	0.37239	0.36601	0.67577
H2	H	0.23003	0.36718	0.73902
H2	H	0.34241	0.08372	0.87413
H2	H	0.1377	0.27837	0.95936
H2	H	0.06512	0.69868	0.74612
H2	H	0.11567	0.144	0.96115
H2	H	0.32139	0.20707	0.72077
H2	H	0.92244	0.39376	0.42661
H2	H	0.61643	0.82045	0.81213
H2	H	0.72421	0.72813	0.95401
H2	H	0.92091	0.75472	0.78773
H2	H	0.76827	0.93972	0.78716
H2	H	0.88472	0.77995	0.88534
H2	H	0.71634	0.961	0.89286
H2	H	0.72543	0.90466	0.99566
H2	H	0.82037	0.7299	0.97213
H2	H	0.86582	0.90061	0.9304
H2	H	1.01141	0.9152	0.76945
H2	H	0.09634	0.82838	0.69105
H2	H	0.10045	0.94442	0.74516
H2	H	0.06462	0.69649	0.92979
H2	H	0.2777	0.61758	0.79459
H2	H	0.30184	0.64128	0.70843
H2	H	0.24772	0.78026	0.72694
H2	H	0.85454	0.34335	0.68366
H2	H	0.24973	0.77508	0.63242
H2	H	0.86799	0.25506	0.7724
H2	H	0.32665	0.8737	0.54739
H2	H	0.89256	0.45855	0.85464
H2	H	0.40749	0.69784	0.39628
H2	H	0.92604	0.7953	0.02419
H2	H	0.58811	0.74751	0.84882
H2	H	0.51633	0.96976	0.42342
H2	H	0.45399	0.86752	0.8944
H2	H	0.2117	0.72996	0.44837
H2	H	0.36559	0.62021	0.39674
H2	H	0.26549	0.63143	0.60222
H2	H	0.20657	0.55013	0.60038
H2	H	0.27726	0.7698	0.52801
O5	O	0.82923	0.28633	0.50019
H2	H	0.82414	0.27397	0.49851
O5	O	0.80432	0.52447	0.28774
H2	H	0.79736	0.54426	0.27753
O5	O	0.8438	0.27653	0.64317
O5	O	0.39498	0.76173	0.48256
O5	O	0.81186	0.64867	0.87728
O5	O	0.93825	0.10378	0.69473
O5	O	0.53177	0.4242	0.51949
O5	O	0.39757	0.41635	0.71498
H2	H	0.82712	0.27645	0.64341
H2	H	0.37918	0.75936	0.49978
H2	H	0.81954	0.64472	0.89069
H2	H	0.94367	0.0959	0.71103
H2	H	0.52117	0.41149	0.53267
H2	H	0.40192	0.42648	0.72039
O5	O	0.28876	0.93647	0.25548
O5	O	0.70077	0.24118	0.42689
O5	O	0.59909	0.46206	0.36554
O5	O	0.9615	0.26378	0.15649
H2	H	0.28234	0.94235	0.27112
H2	H	0.68899	0.22974	0.441
H2	H	0.59118	0.47473	0.37572
H2	H	0.96481	0.27656	0.13733
